REMARK  Name = 2rg6_ligand
REMARK  10 active torsions:
REMARK  status: ('A' for Active; 'I' for Inactive)
REMARK    1  A    between atoms: C10_10  and  C19_19
REMARK    2  A    between atoms: C11_11  and  C20_20
REMARK    3  A    between atoms: C12_12  and  C25_25
REMARK    4  A    between atoms: C13_13  and  C21_21
REMARK    5  A    between atoms: C14_14  and  C22_22
REMARK    6  A    between atoms: C15_15  and  N29_29
REMARK    7  A    between atoms: C23_23  and  C25_25
REMARK    8  A    between atoms: C24_24  and  O34_34
REMARK    9  A    between atoms: C25_25  and  N30_30
REMARK   10  A    between atoms: N31_31  and  O34_34
REMARK                            x       y       z     vdW  Elec       q    Type
REMARK                         _______ _______ _______ _____ _____    ______ ____
ROOT
ATOM     10  C   UNL     1      -1.973  -2.709  21.989  0.00  0.00    +0.043 A 
ATOM     11  C   UNL     1      -2.251  -2.620  20.587  0.00  0.00    -0.021 A 
ATOM     12  C   UNL     1      -2.371  -3.783  19.672  0.00  0.00    +0.059 C 
ATOM     13  C   UNL     1      -2.376  -1.265  20.306  0.00  0.00    +0.154 A 
ATOM     14  N   UNL     1      -2.195  -0.566  21.462  0.00  0.00    -0.165 N 
ATOM     15  N   UNL     1      -2.235   0.786  21.560  0.00  0.00    -0.169 NA
ATOM     16  C   UNL     1      -2.483   1.388  20.435  0.00  0.00    +0.179 A 
ATOM     17  N   UNL     1      -2.685   0.792  19.208  0.00  0.00    -0.278 NA
ATOM     18  C   UNL     1      -2.665  -0.510  19.104  0.00  0.00    +0.167 A 
ATOM     19  N   UNL     1      -2.901  -1.147  17.913  0.00  0.00    -0.248 N 
ATOM     20  H   UNL     1      -2.877  -2.176  17.868  0.00  0.00    +0.219 HD
ATOM     34  C   UNL     1      -1.947  -1.428  22.487  0.00  0.00    +0.163 A 
ENDROOT
BRANCH  19  21
ATOM     21  C   UNL     1      -3.175  -0.403  16.756  0.00  0.00    +0.075 A 
ATOM     22  C   UNL     1      -4.494  -0.112  16.352  0.00  0.00    -0.016 A 
ATOM     23  C   UNL     1      -5.687  -0.594  17.142  0.00  0.00    +0.083 C 
ATOM     24  C   UNL     1      -4.691   0.626  15.178  0.00  0.00    -0.009 A 
ATOM     25  C   UNL     1      -3.590   1.093  14.439  0.00  0.00    -0.004 A 
ATOM     26  C   UNL     1      -2.291   0.805  14.862  0.00  0.00    +0.035 A 
ATOM     33  C   UNL     1      -2.095   0.063  16.018  0.00  0.00    +0.033 A 
BRANCH  26  27
ATOM     27  C   UNL     1      -1.074   1.236  14.127  0.00  0.00    +0.220 C 
ATOM     28  O   UNL     1      -0.024   0.613  14.264  0.00  0.00    -0.388 OA
ATOM     29  N   UNL     1      -1.251   2.263  13.235  0.00  0.00    -0.162 N 
ATOM     30  H   UNL     1      -2.140   2.595  12.920  0.00  0.00    +0.221 HD
BRANCH  29  31
ATOM     31  O   UNL     1      -0.002   2.789  12.820  0.00  0.00    -0.260 OA
ATOM     32  C   UNL     1       0.264   2.318  11.495  0.00  0.00    +0.234 C 
ENDBRANCH  29  31
ENDBRANCH  26  27
ENDBRANCH  19  21
BRANCH  10   8
ATOM      6  N   UNL     1      -1.341  -3.748  24.035  0.00  0.00    -0.277 N 
ATOM      7  H   UNL     1      -1.152  -2.825  24.371  0.00  0.00    +0.187 HD
ATOM      8  C   UNL     1      -1.776  -3.932  22.750  0.00  0.00    +0.183 C 
ATOM      9  O   UNL     1      -1.969  -5.028  22.250  0.00  0.00    -0.399 OA
BRANCH   6   5
ATOM      5  C   UNL     1      -1.153  -4.891  24.912  0.00  0.00    +0.143 C 
ATOM     35  C   UNL     1       0.282  -4.908  25.419  0.00  0.00    +0.050 C 
BRANCH   5   4
ATOM      1  C   UNL     1      -4.149  -4.992  28.021  0.00  0.00    -0.013 A 
ATOM      2  C   UNL     1      -3.695  -3.765  27.551  0.00  0.00    -0.009 A 
ATOM      3  C   UNL     1      -2.726  -3.720  26.546  0.00  0.00    -0.003 A 
ATOM      4  C   UNL     1      -2.198  -4.902  26.002  0.00  0.00    -0.018 A 
ATOM     36  C   UNL     1      -2.672  -6.131  26.485  0.00  0.00    -0.003 A 
ATOM     37  C   UNL     1      -3.638  -6.171  27.491  0.00  0.00    -0.009 A 
ENDBRANCH   5   4
ENDBRANCH   6   5
ENDBRANCH  10   8
TORSDOF 6
