REMARK  Name = B4J
REMARK  6 active torsions:
REMARK  status: ('A' for Active; 'I' for Inactive)
REMARK    1  A    between atoms: C1_1  and  O18_18
REMARK    2  A    between atoms: C2_2  and  O20_20
REMARK    3  A    between atoms: C5_5  and  C7_7
REMARK    4  A    between atoms: N8_8  and  C9_9
REMARK    5  A    between atoms: C9_9  and  C10_10
REMARK    6  A    between atoms: C14_14  and  C16_16
REMARK                            x       y       z     vdW  Elec       q    Type
REMARK                         _______ _______ _______ _____ _____    ______ ____
ROOT
ATOM      9  C   UNL     1     -12.708  -5.452  41.753  0.00  0.00    -0.000 A 
ATOM     10  C   UNL     1     -13.605  -6.500  41.629  0.00  0.00    +0.002 A 
ATOM     11  C   UNL     1     -13.377  -7.520  40.686  0.00  0.00    +0.055 A 
ATOM     25  C   UNL     1     -12.189  -7.526  39.929  0.00  0.00    +0.005 A 
ATOM     26  C   UNL     1     -11.281  -6.489  40.078  0.00  0.00    -0.000 A 
ATOM     27  C   UNL     1     -11.543  -5.459  40.983  0.00  0.00    -0.003 A 
ENDROOT
BRANCH  11  12
ATOM     12  C   UNL     1     -14.334  -8.642  40.620  0.00  0.00    +0.271 C 
ATOM     13  N   UNL     1     -15.648  -8.406  40.843  0.00  0.00    -0.150 NA
ATOM     14  C   UNL     1     -16.636  -9.386  40.903  0.00  0.00    +0.186 A 
ATOM     15  N   UNL     1     -17.893  -9.144  41.112  0.00  0.00    -0.227 NA
ATOM     16  C   UNL     1     -18.730 -10.169  41.144  0.00  0.00    +0.066 A 
ATOM     17  C   UNL     1     -20.246 -10.071  41.367  0.00  0.00    +0.063 C 
ATOM     18  C   UNL     1     -20.779 -11.417  41.885  0.00  0.00    +0.079 C 
ATOM     19  N   UNL     1     -19.930 -12.621  41.870  0.00  0.00    -0.267 NA
ATOM     20  C   UNL     1     -19.494 -12.973  43.236  0.00  0.00    +0.090 C 
ATOM     21  C   UNL     1     -18.793 -12.706  40.935  0.00  0.00    +0.107 C 
ATOM     22  C   UNL     1     -18.105 -11.356  40.926  0.00  0.00    +0.040 A 
ATOM     23  S   UNL     1     -16.392 -11.069  40.732  0.00  0.00    -0.053 S 
ATOM     24  O   UNL     1     -13.896  -9.769  40.481  0.00  0.00    -0.268 OA
ENDBRANCH  11  12
BRANCH   9   8
ATOM      8  C   UNL     1     -13.013  -4.345  42.740  0.00  0.00    +0.142 C 
BRANCH   8   7
ATOM      6  C   UNL     1     -13.053  -2.191  41.463  0.00  0.00    +0.265 C 
ATOM      7  N   UNL     1     -12.444  -3.054  42.314  0.00  0.00    -0.197 NA
ATOM     28  O   UNL     1     -14.138  -2.452  40.964  0.00  0.00    -0.268 OA
BRANCH   6   5
ATOM      1  C   UNL     1     -10.464   0.589  41.198  0.00  0.00    +0.172 A 
ATOM      4  C   UNL     1     -11.110  -0.582  41.612  0.00  0.00    +0.045 A 
ATOM      5  C   UNL     1     -12.374  -0.928  41.082  0.00  0.00    +0.058 A 
ATOM     29  C   UNL     1     -12.975  -0.085  40.128  0.00  0.00    +0.008 A 
ATOM     30  C   UNL     1     -12.344   1.076  39.726  0.00  0.00    +0.040 A 
ATOM     31  C   UNL     1     -11.094   1.427  40.253  0.00  0.00    +0.172 A 
BRANCH   1   2
ATOM      2  O   UNL     1      -9.240   0.963  41.696  0.00  0.00    -0.468 OA
ATOM      3  C   UNL     1      -8.418   0.056  42.442  0.00  0.00    +0.253 C 
ENDBRANCH   1   2
BRANCH  31  32
ATOM     32  O   UNL     1     -10.467   2.573  39.853  0.00  0.00    -0.468 OA
ATOM     33  C   UNL     1     -11.190   3.581  39.140  0.00  0.00    +0.253 C 
ENDBRANCH  31  32
ENDBRANCH   6   5
ENDBRANCH   8   7
ENDBRANCH   9   8
TORSDOF 6
