REMARK  Name = 4c4f_ligand
REMARK  4 active torsions:
REMARK  status: ('A' for Active; 'I' for Inactive)
REMARK    1  A    between atoms: C16_1  and  O1_2
REMARK    2  A    between atoms: O1_2  and  C11_3
REMARK    3  A    between atoms: C10_8  and  N3_9
REMARK    4  A    between atoms: C5_16  and  C7_19
REMARK                            x       y       z     vdW  Elec       q    Type
REMARK                         _______ _______ _______ _____ _____    ______ ____
ROOT
ATOM      5  N   UNL     1      -1.151 -10.696 -16.965  0.00  0.00    -0.271 N 
ATOM      6  H   UNL     1      -1.669 -10.044 -17.571  0.00  0.00    +0.207 HD
ATOM      7  C   UNL     1      -0.287 -11.583 -17.659  0.00  0.00    +0.112 A 
ATOM      8  C   UNL     1       0.407 -12.592 -16.955  0.00  0.00    +0.053 A 
ATOM      9  C   UNL     1       1.085 -13.554 -17.748  0.00  0.00    +0.069 A 
ATOM     10  C   UNL     1       1.104 -13.476 -19.183  0.00  0.00    -0.009 A 
ATOM     11  C   UNL     1       1.824 -14.580 -19.661  0.00  0.00    -0.022 A 
ATOM     12  C   UNL     1       2.225 -15.315 -18.557  0.00  0.00    +0.095 A 
ATOM     18  C   UNL     1       0.423 -12.420 -19.783  0.00  0.00    +0.061 A 
ATOM     19  N   UNL     1       1.772 -14.696 -17.365  0.00  0.00    -0.271 N 
ATOM     20  H   UNL     1       1.924 -15.029 -16.402  0.00  0.00    +0.224 HD
ATOM     21  N   UNL     1      -0.265 -11.487 -19.066  0.00  0.00    -0.299 NA
ENDROOT
BRANCH   5   4
ATOM      3  C   UNL     1      -1.491  -9.214 -15.038  0.00  0.00    +0.114 A 
ATOM      4  C   UNL     1      -1.424 -10.554 -15.575  0.00  0.00    +0.090 A 
ATOM     22  C   UNL     1      -1.581 -11.659 -14.684  0.00  0.00    +0.002 A 
ATOM     23  C   UNL     1      -1.798 -11.438 -13.312  0.00  0.00    -0.034 A 
ATOM     24  C   UNL     1      -1.885 -10.123 -12.793  0.00  0.00    -0.034 A 
ATOM     25  C   UNL     1      -1.737  -9.010 -13.651  0.00  0.00    +0.008 A 
BRANCH   3   2
ATOM      1  C   UNL     1      -1.631  -6.824 -15.561  0.00  0.00    +0.229 C 
ATOM      2  O   UNL     1      -1.180  -8.141 -15.910  0.00  0.00    -0.326 OA
ENDBRANCH   3   2
ENDBRANCH   5   4
BRANCH  12  13
ATOM     13  C   UNL     1       2.993 -16.541 -18.565  0.00  0.00    +0.164 A 
ATOM     14  O   UNL     1       3.059 -17.288 -19.747  0.00  0.00    -0.227 OA
ATOM     15  C   UNL     1       3.784 -18.405 -19.434  0.00  0.00    +0.304 A 
ATOM     16  N   UNL     1       4.175 -18.409 -18.155  0.00  0.00    -0.303 NA
ATOM     17  C   UNL     1       3.687 -17.212 -17.575  0.00  0.00    +0.065 A 
ENDBRANCH  12  13
TORSDOF 3
