REMARK  Name = 2i1m_ligand
REMARK  7 active torsions:
REMARK  status: ('A' for Active; 'I' for Inactive)
REMARK    1  A    between atoms: C1_1  and  N1_18
REMARK    2  A    between atoms: C11_8  and  C12_9
REMARK    3  A    between atoms: C13_10  and  C4_15
REMARK    4  A    between atoms: C13_10  and  O1_19
REMARK    5  A    between atoms: C14_11  and  C15_12
REMARK    6  A    between atoms: C19_14  and  C18_23
REMARK    7  A    between atoms: C6_17  and  N2_20
REMARK                            x       y       z     vdW  Elec       q    Type
REMARK                         _______ _______ _______ _____ _____    ______ ____
ROOT
ATOM      1  C   UNL     1      45.826  40.299  -8.534  0.00  0.00    +0.057 A 
ATOM      9  C   UNL     1      46.586  41.046  -9.505  0.00  0.00    +0.080 A 
ATOM     21  C   UNL     1      46.683  40.554 -10.853  0.00  0.00    -0.008 A 
ATOM     22  C   UNL     1      46.030  39.339 -11.250  0.00  0.00    -0.044 A 
ATOM     26  C   UNL     1      45.271  38.614 -10.286  0.00  0.00    -0.045 A 
ATOM     27  C   UNL     1      45.170  39.086  -8.952  0.00  0.00    -0.018 A 
ENDROOT
BRANCH   1   2
ATOM      2  N   UNL     1      45.765  40.654  -7.172  0.00  0.00    -0.317 N 
ATOM      3  C   UNL     1      44.449  41.053  -6.597  0.00  0.00    +0.124 C 
ATOM      4  C   UNL     1      44.553  41.687  -5.196  0.00  0.00    +0.026 C 
ATOM      5  C   UNL     1      45.565  40.971  -4.294  0.00  0.00    -0.010 C 
ATOM      6  C   UNL     1      45.615  41.649  -2.925  0.00  0.00    +0.007 C 
ATOM      7  C   UNL     1      46.945  41.023  -4.949  0.00  0.00    +0.026 C 
ATOM      8  C   UNL     1      46.954  40.327  -6.323  0.00  0.00    +0.124 C 
ENDBRANCH   1   2
BRANCH   9  10
ATOM     10  N   UNL     1      47.164  42.271  -9.050  0.00  0.00    -0.236 N 
ATOM     11  H   UNL     1      46.880  42.526  -8.126  0.00  0.00    +0.221 HD
ATOM     12  C   UNL     1      48.036  43.176  -9.627  0.00  0.00    +0.268 C 
ATOM     13  O   UNL     1      48.530  43.082 -10.759  0.00  0.00    -0.371 OA
BRANCH  12  14
ATOM     14  C   UNL     1      48.330  44.304  -8.735  0.00  0.00    +0.211 A 
ATOM     15  O   UNL     1      47.673  44.412  -7.527  0.00  0.00    -0.214 OA
ATOM     16  C   UNL     1      48.137  45.548  -6.918  0.00  0.00    +0.235 A 
ATOM     17  C   UNL     1      49.071  46.171  -7.701  0.00  0.00    +0.046 A 
ATOM     20  C   UNL     1      49.194  45.378  -8.874  0.00  0.00    +0.032 A 
BRANCH  16  18
ATOM     18  C   UNL     1      47.610  45.887  -5.642  0.00  0.00    +0.118 C 
ATOM     19  N   UNL     1      47.190  46.175  -4.595  0.00  0.00    -0.347 NA
ENDBRANCH  16  18
ENDBRANCH  12  14
ENDBRANCH   9  10
BRANCH  22  23
ATOM     23  C   UNL     1      46.168  38.824 -12.660  0.00  0.00    +0.208 C 
BRANCH  23  24
ATOM     24  O   UNL     1      45.134  39.389 -13.461  0.00  0.00    -0.385 OA
ATOM     25  H   UNL     1      45.214  39.069 -14.352  0.00  0.00    +0.212 HD
ENDBRANCH  23  24
ENDBRANCH  22  23
TORSDOF 6
