REMARK  Name = 1yhs_ligand
REMARK  5 active torsions:
REMARK  status: ('A' for Active; 'I' for Inactive)
REMARK    1  A    between atoms: C24_24  and  C35_35
REMARK    2  A    between atoms: C25_25  and  O33_33
REMARK    3  A    between atoms: C26_26  and  N31_31
REMARK    4  A    between atoms: N31_31  and  C32_32
REMARK    5  A    between atoms: O33_33  and  C34_34
REMARK                            x       y       z     vdW  Elec       q    Type
REMARK                         _______ _______ _______ _____ _____    ______ ____
ROOT
ATOM      1  C   UNL     1     -17.190  35.048   1.581  0.00  0.00    -0.013 A 
ATOM      2  C   UNL     1     -17.810  35.606   0.386  0.00  0.00    -0.007 A 
ATOM      3  C   UNL     1     -18.770  36.707   0.205  0.00  0.00    +0.001 A 
ATOM      4  C   UNL     1     -19.471  37.663   1.109  0.00  0.00    -0.017 A 
ATOM      5  C   UNL     1     -19.450  37.859   2.607  0.00  0.00    +0.196 C 
ATOM      6  N   UNL     1     -20.262  39.086   2.768  0.00  0.00    -0.279 N 
ATOM      7  H   UNL     1     -20.375  39.568   3.637  0.00  0.00    +0.186 HD
ATOM      8  C   UNL     1     -20.835  39.482   1.605  0.00  0.00    +0.187 C 
ATOM      9  O   UNL     1     -21.651  40.389   1.455  0.00  0.00    -0.396 OA
ATOM     10  C   UNL     1     -20.328  38.658   0.532  0.00  0.00    +0.032 A 
ATOM     11  C   UNL     1     -20.516  38.781  -0.927  0.00  0.00    -0.002 A 
ATOM     12  C   UNL     1     -21.230  39.723  -1.826  0.00  0.00    -0.007 A 
ATOM     13  C   UNL     1     -22.123  40.872  -1.580  0.00  0.00    -0.011 A 
ATOM     14  C   UNL     1     -22.719  41.583  -2.747  0.00  0.00    -0.023 A 
ATOM     15  C   UNL     1     -22.416  41.141  -4.128  0.00  0.00    -0.016 A 
ATOM     16  C   UNL     1     -21.519  39.987  -4.363  0.00  0.00    +0.014 A 
ATOM     17  C   UNL     1     -20.928  39.278  -3.194  0.00  0.00    +0.068 A 
ATOM     18  N   UNL     1     -20.055  38.130  -3.130  0.00  0.00    -0.238 N 
ATOM     19  C   UNL     1     -19.395  37.530  -4.245  0.00  0.00    +0.260 C 
ATOM     20  O   UNL     1     -19.428  36.151  -4.080  0.00  0.00    -0.315 OA
ATOM     21  C   UNL     1     -18.301  35.477  -3.459  0.00  0.00    +0.202 C 
ATOM     22  C   UNL     1     -18.633  33.986  -3.730  0.00  0.00    +0.079 C 
ATOM     23  C   UNL     1     -16.936  35.811  -4.228  0.00  0.00    +0.227 C 
ATOM     26  C   UNL     1     -17.112  37.004  -5.207  0.00  0.00    +0.102 C 
ATOM     31  N   UNL     1     -18.229  35.797  -1.944  0.00  0.00    -0.229 N 
ATOM     32  C   UNL     1     -17.971  38.083  -4.545  0.00  0.00    +0.120 C 
ATOM     33  C   UNL     1     -19.809  37.848  -1.790  0.00  0.00    +0.095 A 
ATOM     34  C   UNL     1     -18.944  36.794  -1.236  0.00  0.00    +0.098 A 
ATOM     35  C   UNL     1     -17.474  35.093  -0.955  0.00  0.00    +0.070 A 
ATOM     36  C   UNL     1     -16.482  34.008  -1.111  0.00  0.00    +0.013 A 
ATOM     37  C   UNL     1     -15.849  33.457   0.091  0.00  0.00    -0.018 A 
ATOM     38  C   UNL     1     -16.210  33.972   1.415  0.00  0.00    -0.024 A 
ENDROOT
BRANCH  26  27
ATOM     27  N   UNL     1     -15.881  37.639  -5.707  0.00  0.00    +0.229 N 
ATOM     28  H   UNL     1     -16.090  38.521  -6.148  0.00  0.00    +0.201 HD
ATOM     29  H   UNL     1     -15.226  37.786  -4.955  0.00  0.00    +0.201 HD
ATOM     30  C   UNL     1     -15.338  36.684  -6.689  0.00  0.00    +0.189 C 
ENDBRANCH  26  27
BRANCH  23  24
ATOM     24  O   UNL     1     -15.935  36.196  -3.283  0.00  0.00    -0.369 OA
ATOM     25  C   UNL     1     -14.670  35.524  -3.447  0.00  0.00    +0.195 C 
ENDBRANCH  23  24
TORSDOF 2
