REMARK  Name = 67N
REMARK  0 active torsions:
REMARK  status: ('A' for Active; 'I' for Inactive)
REMARK                            x       y       z     vdW  Elec       q    Type
REMARK                         _______ _______ _______ _____ _____    ______ ____
ROOT
ATOM      1  C   UNL     1     -16.713   6.072   9.298  0.00  0.00    +0.020 C 
ATOM      2  C   UNL     1     -17.309   6.516  10.552  0.00  0.00    +0.025 A 
ATOM      3  C   UNL     1     -16.858   7.270  11.658  0.00  0.00    +0.022 A 
ATOM      4  C   UNL     1     -17.884   7.364  12.527  0.00  0.00    +0.099 A 
ATOM      5  N   UNL     1     -18.966   6.693  12.036  0.00  0.00    -0.239 NA
ATOM      6  C   UNL     1     -18.642   6.160  10.820  0.00  0.00    +0.137 A 
ATOM      7  C   UNL     1     -19.383   5.398   9.894  0.00  0.00    +0.279 C 
ATOM      8  O   UNL     1     -20.555   5.074  10.118  0.00  0.00    -0.265 OA
ATOM      9  N   UNL     1     -18.774   5.029   8.751  0.00  0.00    -0.291 N 
ATOM     10  C   UNL     1     -19.546   4.253   7.782  0.00  0.00    +0.134 C 
ATOM     11  C   UNL     1     -17.477   5.354   8.455  0.00  0.00    +0.079 C 
ENDROOT
TORSDOF 0
