REMARK  Name = 5EM7
REMARK  18 active torsions:
REMARK  status: ('A' for Active; 'I' for Inactive)
REMARK    1  A    between atoms: C_3  and  N_14
REMARK    2  A    between atoms: C_5  and  N_13
REMARK    3  A    between atoms: N_10  and  C_12
REMARK    4  A    between atoms: C_15  and  C_17
REMARK    5  A    between atoms: C_18  and  N_24
REMARK    6  A    between atoms: C_22  and  O_23
REMARK    7  A    between atoms: N_24  and  C_25
REMARK    8  A    between atoms: C_30  and  O_31
REMARK    9  A    between atoms: O_31  and  C_32
REMARK   10  A    between atoms: C_36  and  N_47
REMARK   11  A    between atoms: C_38  and  N_46
REMARK   12  A    between atoms: N_43  and  C_45
REMARK   13  A    between atoms: C_48  and  C_50
REMARK   14  A    between atoms: C_51  and  N_57
REMARK   15  A    between atoms: C_55  and  O_56
REMARK   16  A    between atoms: N_57  and  C_58
REMARK   17  A    between atoms: C_63  and  O_64
REMARK   18  A    between atoms: O_64  and  C_65
REMARK                            x       y       z     vdW  Elec       q    Type
REMARK                         _______ _______ _______ _____ _____    ______ ____
ROOT
ATOM     10  C   UNL     1     -53.370   0.848 -22.614  0.00  0.00    +0.169 A 
ATOM     11  C   UNL     1     -54.413   1.844 -22.559  0.00  0.00    +0.382 A 
ATOM     14  N   UNL     1     -55.137   2.156 -23.662  0.00  0.00    -0.179 N 
ATOM     15  H   UNL     1     -55.830   2.832 -23.597  0.00  0.00    +0.456 HD
ATOM     16  C   UNL     1     -54.927   1.556 -24.861  0.00  0.00    +0.312 A 
ATOM     17  C   UNL     1     -53.962   0.619 -24.994  0.00  0.00    +0.094 A 
ATOM     18  C   UNL     1     -53.155   0.221 -23.892  0.00  0.00    +0.059 A 
ENDROOT
BRANCH  10   9
ATOM      7  N   UNL     1     -52.795   1.128 -20.216  0.00  0.00    -0.281 N 
ATOM      8  H   UNL     1     -53.517   1.916 -20.266  0.00  0.00    +0.155 HD
ATOM      9  C   UNL     1     -52.582   0.481 -21.397  0.00  0.00    +0.260 C 
ATOM     29  O   UNL     1     -51.769  -0.423 -21.440  0.00  0.00    -0.269 OA
BRANCH   7   6
ATOM      3  C   UNL     1     -51.253   0.666 -16.297  0.00  0.00    +0.030 A 
ATOM      4  C   UNL     1     -50.788  -0.175 -17.329  0.00  0.00    +0.025 A 
ATOM      5  C   UNL     1     -51.264  -0.040 -18.631  0.00  0.00    +0.025 A 
ATOM      6  C   UNL     1     -52.224   0.936 -18.935  0.00  0.00    +0.034 A 
ATOM     30  C   UNL     1     -52.704   1.756 -17.906  0.00  0.00    +0.025 A 
ATOM     31  C   UNL     1     -52.229   1.625 -16.607  0.00  0.00    +0.025 A 
BRANCH   3   2
ATOM      1  C   UNL     1     -51.827  -0.246 -14.172  0.00  0.00    +0.120 C 
ATOM      2  N   UNL     1     -50.828   0.531 -14.951  0.00  0.00    -0.328 N 
ATOM     32  C   UNL     1     -49.424   0.068 -14.780  0.00  0.00    +0.120 C 
ATOM     33  C   UNL     1     -49.056  -0.125 -13.296  0.00  0.00    +0.103 C 
ATOM     34  N   UNL     1     -50.083  -0.939 -12.605  0.00  0.00    -0.302 NA
ATOM     35  C   UNL     1     -49.711  -1.188 -11.203  0.00  0.00    +0.105 C 
ATOM     36  C   UNL     1     -51.433  -0.351 -12.692  0.00  0.00    +0.103 C 
ENDBRANCH   3   2
ENDBRANCH   7   6
ENDBRANCH  10   9
BRANCH  11  12
ATOM     12  O   UNL     1     -54.688   2.454 -21.537  0.00  0.00    -0.459 OA
ATOM     13  H   UNL     1     -54.982   1.775 -20.792  0.00  0.00    +0.298 HD
ENDBRANCH  11  12
BRANCH  18  19
ATOM     19  N   UNL     1     -52.174  -0.751 -24.077  0.00  0.00    -0.311 N 
ATOM     20  H   UNL     1     -51.470  -0.883 -23.282  0.00  0.00    +0.152 HD
BRANCH  19  21
ATOM     21  C   UNL     1     -52.018  -1.579 -25.211  0.00  0.00    +0.074 A 
ATOM     22  C   UNL     1     -52.204  -2.974 -25.105  0.00  0.00    +0.141 A 
ATOM     25  C   UNL     1     -52.036  -3.777 -26.240  0.00  0.00    +0.047 A 
ATOM     26  C   UNL     1     -51.647  -3.216 -27.454  0.00  0.00    +0.004 A 
ATOM     27  C   UNL     1     -51.434  -1.844 -27.552  0.00  0.00    +0.002 A 
ATOM     28  C   UNL     1     -51.591  -1.034 -26.432  0.00  0.00    +0.027 A 
BRANCH  22  23
ATOM     23  O   UNL     1     -52.606  -3.542 -23.926  0.00  0.00    -0.493 OA
ATOM     24  C   UNL     1     -51.620  -4.078 -23.033  0.00  0.00    +0.277 C 
ENDBRANCH  22  23
ENDBRANCH  19  21
ENDBRANCH  18  19
TORSDOF 7
