REMARK  Name = 3mv5_ligand
REMARK  2 active torsions:
REMARK  status: ('A' for Active; 'I' for Inactive)
REMARK    1  A    between atoms: C1_1  and  N16_16
REMARK    2  A    between atoms: C14_14  and  C15_15
REMARK                            x       y       z     vdW  Elec       q    Type
REMARK                         _______ _______ _______ _____ _____    ______ ____
ROOT
ATOM      1  C   UNL     1       7.703   2.945  19.080  0.00  0.00    +0.086 C 
ATOM      6  C   UNL     1       6.644   2.479  18.089  0.00  0.00    +0.193 C 
ATOM      7  N   UNL     1       6.372   3.665  17.289  0.00  0.00    -0.282 N 
ATOM      8  C   UNL     1       5.095   3.922  16.743  0.00  0.00    +0.122 A 
ATOM      9  C   UNL     1       4.054   3.000  16.377  0.00  0.00    +0.049 A 
ATOM     10  C   UNL     1       3.733   1.532  16.317  0.00  0.00    -0.040 A 
ATOM     11  C   UNL     1       4.577   0.346  16.711  0.00  0.00    +0.049 C 
ATOM     12  C   UNL     1       2.428   1.325  15.846  0.00  0.00    +0.099 A 
ATOM     13  N   UNL     1       1.917   2.554  15.579  0.00  0.00    -0.276 N 
ATOM     14  H   UNL     1       0.972   2.731  15.210  0.00  0.00    +0.227 HD
ATOM     15  C   UNL     1       2.829   3.515  15.868  0.00  0.00    +0.132 A 
ATOM     16  N   UNL     1       2.693   4.849  15.739  0.00  0.00    -0.279 NA
ATOM     17  C   UNL     1       3.707   5.708  16.098  0.00  0.00    +0.147 A 
ATOM     18  N   UNL     1       4.881   5.246  16.571  0.00  0.00    -0.274 NA
ATOM     19  C   UNL     1       7.177   4.810  17.699  0.00  0.00    +0.145 C 
ATOM     20  C   UNL     1       8.350   4.142  18.414  0.00  0.00    +0.081 C 
ENDROOT
BRANCH   1   2
ATOM      2  N   UNL     1       7.047   3.357  20.315  0.00  0.00    +0.222 N 
ATOM      3  H   UNL     1       6.408   4.112  20.120  0.00  0.00    +0.200 HD
ATOM      4  H   UNL     1       6.539   2.577  20.702  0.00  0.00    +0.200 HD
ATOM      5  H   UNL     1       7.741   3.667  20.977  0.00  0.00    +0.200 HD
ENDBRANCH   1   2
TORSDOF 1
