REMARK  Name = 3ML8
REMARK  6 active torsions:
REMARK  status: ('A' for Active; 'I' for Inactive)
REMARK    1  A    between atoms: C_5  and  C_12
REMARK    2  A    between atoms: C_7  and  C_21
REMARK    3  A    between atoms: C_8  and  C_19
REMARK    4  A    between atoms: C_18  and  N_24
REMARK    5  A    between atoms: C_20  and  N_25
REMARK    6  A    between atoms: C_21  and  O_27
REMARK                            x       y       z     vdW  Elec       q    Type
REMARK                         _______ _______ _______ _____ _____    ______ ____
ROOT
ATOM      9  C   UNL     1      43.771  13.947  30.786  0.00  0.00    +0.047 C 
ATOM     10  C   UNL     1      44.453  15.223  31.338  0.00  0.00    +0.261 C 
ATOM     11  O   UNL     1      43.832  15.973  32.096  0.00  0.00    -0.267 OA
ATOM     12  N   UNL     1      45.806  15.489  30.941  0.00  0.00    -0.289 N 
ATOM     18  C   UNL     1      46.525  14.609  30.058  0.00  0.00    +0.149 A 
ATOM     19  N   UNL     1      47.809  14.912  29.719  0.00  0.00    -0.196 NA
ATOM     20  C   UNL     1      48.504  14.089  28.887  0.00  0.00    +0.217 A 
ATOM     21  N   UNL     1      49.840  14.384  28.516  0.00  0.00    -0.317 N 
ATOM     22  H   UNL     1      50.246  14.034  27.590  0.00  0.00    +0.149 HD
ATOM     23  C   UNL     1      50.642  15.180  29.437  0.00  0.00    +0.128 C 
ATOM     24  N   UNL     1      47.948  12.957  28.374  0.00  0.00    -0.219 NA
ATOM     25  C   UNL     1      46.652  12.654  28.713  0.00  0.00    +0.052 A 
ATOM     26  C   UNL     1      46.119  11.402  28.097  0.00  0.00    +0.066 C 
ATOM     27  C   UNL     1      45.886  13.461  29.570  0.00  0.00    +0.040 A 
ATOM     28  C   UNL     1      44.509  13.168  29.957  0.00  0.00    +0.027 C 
ENDROOT
BRANCH   9   8
ATOM      1  C   UNL     1      40.238  13.791  32.447  0.00  0.00    +0.001 A 
ATOM      2  C   UNL     1      39.627  12.733  31.747  0.00  0.00    +0.006 A 
ATOM      3  C   UNL     1      40.335  12.058  30.741  0.00  0.00    -0.022 A 
ATOM      7  C   UNL     1      41.666  12.448  30.433  0.00  0.00    +0.014 A 
ATOM      8  C   UNL     1      42.330  13.526  31.123  0.00  0.00    -0.012 A 
ATOM     29  C   UNL     1      41.566  14.184  32.143  0.00  0.00    +0.009 A 
BRANCH   3   4
ATOM      4  C   UNL     1      39.698  10.943  29.996  0.00  0.00    +0.191 C 
BRANCH   4   5
ATOM      5  O   UNL     1      38.947  11.488  28.915  0.00  0.00    -0.390 OA
ATOM      6  H   UNL     1      38.209  12.133  29.291  0.00  0.00    +0.210 HD
ENDBRANCH   4   5
ENDBRANCH   3   4
ENDBRANCH   9   8
BRANCH  12  13
ATOM     13  C   UNL     1      46.561  16.713  31.428  0.00  0.00    +0.092 C 
ATOM     14  C   UNL     1      46.816  16.658  32.951  0.00  0.00    +0.025 C 
ATOM     15  C   UNL     1      46.759  18.117  33.385  0.00  0.00    +0.002 C 
ATOM     16  C   UNL     1      45.637  18.706  32.529  0.00  0.00    +0.002 C 
ATOM     17  C   UNL     1      45.805  18.045  31.163  0.00  0.00    +0.025 C 
ENDBRANCH  12  13
TORSDOF 4
