REMARK  Name = 4nks_ligand
REMARK  7 active torsions:
REMARK  status: ('A' for Active; 'I' for Inactive)
REMARK    1  A    between atoms: C1_1  and  C2_2
REMARK    2  A    between atoms: C4_4  and  C5_5
REMARK    3  A    between atoms: C5_5  and  N6_6
REMARK    4  A    between atoms: N12_12  and  C13_13
REMARK    5  A    between atoms: C15_15  and  C16_16
REMARK    6  A    between atoms: C16_16  and  C17_17
REMARK    7  A    between atoms: C17_17  and  C18_18
REMARK                            x       y       z     vdW  Elec       q    Type
REMARK                         _______ _______ _______ _____ _____    ______ ____
ROOT
ATOM      7  N   UNL     1      84.771   4.502   9.520  0.00  0.00    -0.276 N 
ATOM      8  H   UNL     1      83.953   5.117   9.404  0.00  0.00    +0.189 HD
ATOM      9  C   UNL     1      84.885   3.378   8.735  0.00  0.00    +0.177 A 
ATOM     10  N   UNL     1      85.746   2.404   9.066  0.00  0.00    -0.238 NA
ATOM     11  C   UNL     1      85.836   1.309   8.306  0.00  0.00    +0.137 A 
ATOM     12  N   UNL     1      86.743   0.312   8.582  0.00  0.00    -0.230 N 
ATOM     13  H   UNL     1      86.871  -0.430   7.880  0.00  0.00    +0.222 HD
ATOM     28  C   UNL     1      85.048   1.178   7.149  0.00  0.00    +0.056 A 
ATOM     29  C   UNL     1      84.171   2.209   6.842  0.00  0.00    +0.085 A 
ATOM     30  N   UNL     1      84.110   3.285   7.649  0.00  0.00    -0.273 NA
ENDROOT
BRANCH  12  14
ATOM     14  C   UNL     1      87.493   0.242   9.739  0.00  0.00    +0.173 A 
ATOM     15  N   UNL     1      88.203  -0.799   9.984  0.00  0.00    -0.211 N 
ATOM     16  H   UNL     1      88.305  -1.625   9.377  0.00  0.00    +0.247 HD
ATOM     17  N   UNL     1      88.818  -0.601  11.241  0.00  0.00    -0.252 NA
ATOM     18  C   UNL     1      88.446   0.588  11.719  0.00  0.00    -0.010 A 
ATOM     27  C   UNL     1      87.610   1.148  10.786  0.00  0.00    -0.009 A 
BRANCH  18  19
ATOM     19  C   UNL     1      88.871   1.100  13.074  0.00  0.00    +0.075 C 
BRANCH  19  20
ATOM     20  C   UNL     1      89.668   2.371  12.937  0.00  0.00    +0.079 C 
BRANCH  20  21
ATOM     21  C   UNL     1      90.381   2.722  14.217  0.00  0.00    -0.041 A 
ATOM     22  C   UNL     1      89.694   2.751  15.422  0.00  0.00    -0.004 A 
ATOM     23  C   UNL     1      90.358   3.109  16.593  0.00  0.00    -0.009 A 
ATOM     24  C   UNL     1      91.710   3.439  16.554  0.00  0.00    -0.013 A 
ATOM     25  C   UNL     1      92.413   3.424  15.338  0.00  0.00    -0.009 A 
ATOM     26  C   UNL     1      91.736   3.069  14.162  0.00  0.00    -0.004 A 
ENDBRANCH  20  21
ENDBRANCH  19  20
ENDBRANCH  18  19
ENDBRANCH  12  14
BRANCH   7   6
ATOM      6  C   UNL     1      85.789   4.843  10.519  0.00  0.00    +0.252 C 
BRANCH   6   5
ATOM      1  C   UNL     1      83.367   2.193  14.234  0.00  0.00    +0.083 C 
ATOM      2  C   UNL     1      84.315   3.060  13.411  0.00  0.00    +0.008 A 
ATOM      3  N   UNL     1      85.405   3.617  13.844  0.00  0.00    -0.174 NA
ATOM      4  O   UNL     1      86.005   4.255  12.969  0.00  0.00    -0.179 OA
ATOM      5  C   UNL     1      85.362   4.181  11.791  0.00  0.00    +0.154 A 
ATOM     31  C   UNL     1      84.245   3.416  12.026  0.00  0.00    -0.005 A 
ENDBRANCH   6   5
ENDBRANCH   7   6
TORSDOF 6
