REMARK  Name = 4b0g_ligand
REMARK  6 active torsions:
REMARK  status: ('A' for Active; 'I' for Inactive)
REMARK    1  A    between atoms: C01_1  and  C02_2
REMARK    2  A    between atoms: C04_4  and  C05_5
REMARK    3  A    between atoms: C05_5  and  N06_6
REMARK    4  A    between atoms: N09_9  and  C10_10
REMARK    5  A    between atoms: C17_17  and  C18_18
REMARK    6  A    between atoms: N22_22  and  C23_23
REMARK                            x       y       z     vdW  Elec       q    Type
REMARK                         _______ _______ _______ _____ _____    ______ ____
ROOT
ATOM     12  C   UNL     1     -24.580 -14.688 -16.366  0.00  0.00    +0.074 A 
ATOM     13  C   UNL     1     -25.256 -15.879 -15.810  0.00  0.00    +0.079 A 
ATOM     14  N   UNL     1     -25.487 -16.313 -14.502  0.00  0.00    -0.305 NA
ATOM     15  C   UNL     1     -26.173 -17.514 -14.555  0.00  0.00    +0.160 A 
ATOM     22  N   UNL     1     -26.390 -17.842 -15.921  0.00  0.00    -0.240 N 
ATOM     23  H   UNL     1     -26.879 -18.676 -16.275  0.00  0.00    +0.232 HD
ATOM     24  C   UNL     1     -25.831 -16.848 -16.682  0.00  0.00    +0.141 A 
ATOM     25  N   UNL     1     -25.768 -16.691 -18.090  0.00  0.00    -0.301 NA
ATOM     26  C   UNL     1     -25.117 -15.564 -18.635  0.00  0.00    +0.062 A 
ATOM     27  C   UNL     1     -24.517 -14.570 -17.743  0.00  0.00    +0.041 A 
ATOM     28 BR   UNL     1     -23.767 -12.999 -18.596  0.00  0.00    -0.064 Br
ENDROOT
BRANCH  12  11
ATOM      7  N   UNL     1     -22.333 -11.963 -13.889  0.00  0.00    +0.249 N 
ATOM      8  H   UNL     1     -23.025 -11.336 -14.269  0.00  0.00    +0.205 HD
ATOM      9  C   UNL     1     -21.658 -12.451 -15.095  0.00  0.00    +0.157 C 
ATOM     10  C   UNL     1     -22.383 -13.695 -15.717  0.00  0.00    +0.186 C 
ATOM     11  N   UNL     1     -23.869 -13.701 -15.484  0.00  0.00    -0.290 N 
ATOM     29  C   UNL     1     -24.266 -13.515 -14.087  0.00  0.00    +0.186 C 
ATOM     30  C   UNL     1     -23.152 -12.977 -13.196  0.00  0.00    +0.157 C 
BRANCH   7   6
ATOM      6  C   UNL     1     -21.580 -11.092 -13.004  0.00  0.00    +0.197 C 
BRANCH   6   5
ATOM      1  C   UNL     1     -22.131  -6.251 -15.194  0.00  0.00    +0.143 C 
ATOM      2  C   UNL     1     -22.315  -7.529 -14.333  0.00  0.00    +0.129 A 
ATOM      3  O   UNL     1     -23.416  -7.742 -13.407  0.00  0.00    -0.181 OA
ATOM      4  N   UNL     1     -23.256  -9.087 -12.799  0.00  0.00    -0.168 NA
ATOM      5  C   UNL     1     -22.078  -9.665 -13.331  0.00  0.00    +0.055 A 
ATOM     31  C   UNL     1     -21.468  -8.701 -14.308  0.00  0.00    -0.002 A 
ENDBRANCH   6   5
ENDBRANCH   7   6
ENDBRANCH  12  11
BRANCH  15  16
ATOM     16  C   UNL     1     -26.672 -18.262 -13.476  0.00  0.00    +0.133 A 
ATOM     17  N   UNL     1     -26.393 -18.113 -12.149  0.00  0.00    -0.240 N 
ATOM     18  C   UNL     1     -25.439 -17.176 -11.534  0.00  0.00    +0.223 C 
ATOM     19  C   UNL     1     -27.190 -19.037 -11.446  0.00  0.00    +0.234 A 
ATOM     20  N   UNL     1     -27.956 -19.744 -12.371  0.00  0.00    -0.313 NA
ATOM     21  C   UNL     1     -27.663 -19.287 -13.623  0.00  0.00    +0.062 A 
ENDBRANCH  15  16
TORSDOF 4
