REMARK  Name = 3ns9_ligand
REMARK  13 active torsions:
REMARK  status: ('A' for Active; 'I' for Inactive)
REMARK    1  A    between atoms: C3_3  and  N10_10
REMARK    2  A    between atoms: C8_8  and  C26_26
REMARK    3  A    between atoms: N10_10  and  C11_11
REMARK    4  A    between atoms: C11_11  and  C12_12
REMARK    5  A    between atoms: N18_18  and  C19_19
REMARK    6  A    between atoms: C19_19  and  C20_20
REMARK    7  A    between atoms: C19_19  and  C23_23
REMARK    8  A    between atoms: C20_20  and  C21_21
REMARK    9  A    between atoms: C20_20  and  O25_25
REMARK   10  A    between atoms: C21_21  and  O22_22
REMARK   11  A    between atoms: C23_23  and  O24_24
REMARK   12  A    between atoms: C26_26  and  C27_27
REMARK   13  A    between atoms: C26_26  and  C28_28
REMARK                            x       y       z     vdW  Elec       q    Type
REMARK                         _______ _______ _______ _____ _____    ______ ____
ROOT
ATOM      1  N   UNK A   0       1.643  -4.801 -29.255  0.00  0.00    -0.227 NA
ATOM      2  C   UNK A   0       0.503  -4.116 -29.101  0.00  0.00    +0.033 A 
ATOM      3  C   UNK A   0      -0.364  -4.851 -28.380  0.00  0.00    -0.031 A 
ATOM      7  C   UNK A   0       0.253  -6.065 -28.056  0.00  0.00    +0.132 A 
ATOM      8  N   UNK A   0      -0.135  -7.161 -27.320  0.00  0.00    -0.299 NA
ATOM      9  C   UNK A   0       0.766  -8.202 -27.237  0.00  0.00    +0.085 A 
ATOM     10  N   UNK A   1       0.492  -9.312 -26.519  0.00  0.00    -0.299 N 
ATOM     11  H   UNK A   1       1.243  -9.987 -26.317  0.00  0.00    +0.184 HD
ATOM     22  C   UNK A   0       2.080  -8.099 -27.833  0.00  0.00    +0.074 A 
ATOM     23  C   UNK A   0       2.442  -6.966 -28.596  0.00  0.00    +0.216 A 
ATOM     33  N   UNK A   0       1.525  -5.940 -28.713  0.00  0.00    -0.128 N 
ENDROOT
BRANCH   3   4
ATOM      4  C   UNK A   0      -1.746  -4.411 -27.963  0.00  0.00    -0.001 C 
ATOM      5  C   UNK A   0      -2.867  -5.487 -28.199  0.00  0.00    +0.012 C 
ATOM      6  C   UNK A   0      -1.753  -4.071 -26.449  0.00  0.00    +0.012 C 
ENDBRANCH   3   4
BRANCH  23  24
ATOM     24  N   UNK A   0       3.652  -6.804 -29.188  0.00  0.00    -0.261 N 
ATOM     25  H   UNK A   0       3.799  -5.996 -29.810  0.00  0.00    +0.196 HD
BRANCH  24  26
ATOM     26  C   UNK A   0       4.783  -7.764 -28.966  0.00  0.00    +0.208 C 
BRANCH  26  27
ATOM     27  C   UNK A   0       4.723  -8.855 -30.014  0.00  0.00    -0.020 A 
ATOM     28  C   UNK A   0       4.665 -10.190 -29.646  0.00  0.00    -0.003 A 
ATOM     29  C   UNK A   0       4.622 -11.141 -30.674  0.00  0.00    -0.009 A 
ATOM     30  C   UNK A   0       4.615 -10.813 -32.008  0.00  0.00    -0.013 A 
ATOM     31  C   UNK A   0       4.681  -9.450 -32.365  0.00  0.00    -0.009 A 
ATOM     32  C   UNK A   0       4.735  -8.486 -31.365  0.00  0.00    -0.003 A 
ENDBRANCH  26  27
ENDBRANCH  24  26
ENDBRANCH  23  24
BRANCH  10  12
ATOM     12  C   UNK A   1      -0.902  -9.572 -26.010  0.00  0.00    +0.151 C 
BRANCH  12  13
ATOM     13  C   UNK A   1      -1.195 -11.098 -26.193  0.00  0.00    +0.186 C 
BRANCH  13  14
ATOM     14  O   UNK A   1      -0.009 -11.887 -25.921  0.00  0.00    -0.393 OA
ATOM     15  H   UNK A   1      -0.209 -12.808 -26.038  0.00  0.00    +0.209 HD
ENDBRANCH  13  14
ENDBRANCH  12  13
BRANCH  12  16
ATOM     16  C   UNK A   1      -1.083  -9.212 -24.550  0.00  0.00    +0.167 C 
BRANCH  16  17
ATOM     17  O   UNK A   1      -2.485  -9.519 -24.210  0.00  0.00    -0.387 OA
ATOM     18  H   UNK A   1      -3.061  -8.938 -24.693  0.00  0.00    +0.210 HD
ENDBRANCH  16  17
BRANCH  16  19
ATOM     19  C   UNK A   1      -0.731  -7.724 -24.180  0.00  0.00    +0.189 C 
BRANCH  19  20
ATOM     20  O   UNK A   1      -1.592  -6.946 -24.962  0.00  0.00    -0.392 OA
ATOM     21  H   UNK A   1      -1.434  -7.127 -25.881  0.00  0.00    +0.209 HD
ENDBRANCH  19  20
ENDBRANCH  16  19
ENDBRANCH  12  16
ENDBRANCH  10  12
TORSDOF 11
