REMARK  Name = 2vtr_ligand
REMARK  5 active torsions:
REMARK  status: ('A' for Active; 'I' for Inactive)
REMARK    1  A    between atoms: C1_1  and  C2_2
REMARK    2  A    between atoms: C2_2  and  C3_3
REMARK    3  A    between atoms: C2_2  and  N4_4
REMARK    4  A    between atoms: N4_4  and  C5_5
REMARK    5  A    between atoms: C11_11  and  C12_12
REMARK                            x       y       z     vdW  Elec       q    Type
REMARK                         _______ _______ _______ _____ _____    ______ ____
ROOT
ATOM      5  C   UNL     1      28.700   6.859  64.342  0.00  0.00    +0.233 A 
ATOM      6  N   UNL     1      28.015   5.663  64.149  0.00  0.00    -0.094 N 
ATOM      7  N   UNL     1      28.316   4.439  64.677  0.00  0.00    -0.195 NA
ATOM      8  C   UNL     1      27.363   3.599  64.165  0.00  0.00    +0.092 A 
ATOM      9  C   UNL     1      26.498   4.282  63.323  0.00  0.00    +0.114 A 
ATOM     12  C   UNL     1      26.935   5.587  63.294  0.00  0.00    +0.194 A 
ATOM     13  N   UNL     1      26.494   6.661  62.622  0.00  0.00    -0.264 NA
ATOM     14  C   UNL     1      27.130   7.816  62.828  0.00  0.00    +0.103 A 
ATOM     15 CL   UNL     1      26.496   9.170  61.961  0.00  0.00    -0.035 Cl
ATOM     16  C   UNL     1      28.233   7.980  63.661  0.00  0.00    +0.088 A 
ENDROOT
BRANCH   5   3
ATOM      3  N   UNL     1      29.822   6.922  65.187  0.00  0.00    -0.265 N 
ATOM      4  H   UNL     1      30.072   6.099  65.753  0.00  0.00    +0.196 HD
BRANCH   3   2
ATOM      1  C   UNL     1      31.508   8.080  66.528  0.00  0.00    +0.035 C 
ATOM      2  C   UNL     1      30.641   8.128  65.280  0.00  0.00    +0.099 C 
ATOM     17  C   UNL     1      31.475   8.289  64.012  0.00  0.00    +0.035 C 
ENDBRANCH   3   2
ENDBRANCH   5   3
BRANCH   9  10
ATOM     10  C   UNL     1      25.396   3.775  62.582  0.00  0.00    +0.045 C 
ATOM     11  N   UNL     1      24.515   3.368  61.980  0.00  0.00    -0.380 NA
ENDBRANCH   9  10
TORSDOF 3
