REMARK  Name = 4bbf_ligand
REMARK  5 active torsions:
REMARK  status: ('A' for Active; 'I' for Inactive)
REMARK    1  A    between atoms: C9_2  and  C11_3
REMARK    2  A    between atoms: N8_8  and  C6_9
REMARK    3  A    between atoms: C3_13  and  C7_15
REMARK    4  A    between atoms: N21_21  and  C22_22
REMARK    5  A    between atoms: C25_25  and  N28_28
REMARK                            x       y       z     vdW  Elec       q    Type
REMARK                         _______ _______ _______ _____ _____    ______ ____
ROOT
ATOM      9  C   UNL     1      -7.225 -27.173 -35.202  0.00  0.00    +0.044 A 
ATOM     10  C   UNL     1      -8.574 -26.736 -35.104  0.00  0.00    +0.043 A 
ATOM     11  C   UNL     1      -9.434 -27.237 -36.074  0.00  0.00    +0.098 A 
ATOM     12  N   UNL     1      -8.947 -28.130 -36.975  0.00  0.00    -0.257 NA
ATOM     13  C   UNL     1      -7.699 -28.556 -37.022  0.00  0.00    +0.203 A 
ATOM     14  N   UNL     1      -7.400 -29.364 -38.060  0.00  0.00    -0.249 N 
ATOM     15  H   UNL     1      -8.161 -29.503 -38.740  0.00  0.00    +0.215 HD
ATOM     28  N   UNL     1      -6.807 -28.042 -36.157  0.00  0.00    -0.254 NA
ENDROOT
BRANCH   9   8
ATOM      5  C   UNL     1      -4.089 -25.869 -32.657  0.00  0.00    +0.073 A 
ATOM      6  C   UNL     1      -5.265 -25.105 -32.728  0.00  0.00    +0.017 A 
ATOM      7  C   UNL     1      -6.340 -25.526 -33.528  0.00  0.00    +0.002 A 
ATOM      8  C   UNL     1      -6.171 -26.712 -34.275  0.00  0.00    -0.011 A 
ATOM     29  C   UNL     1      -5.000 -27.450 -34.217  0.00  0.00    +0.002 A 
ATOM     30  C   UNL     1      -3.936 -27.053 -33.396  0.00  0.00    +0.017 A 
BRANCH   5   3
ATOM      1  O   UNL     1      -1.350 -26.859 -32.103  0.00  0.00    -0.377 OA
ATOM      2  C   UNL     1      -1.857 -25.866 -31.576  0.00  0.00    +0.255 C 
ATOM      3  N   UNL     1      -3.100 -25.404 -31.776  0.00  0.00    -0.225 N 
ATOM      4  H   UNL     1      -3.359 -24.616 -31.218  0.00  0.00    +0.229 HD
BRANCH   2  31
ATOM     31  C   UNL     1      -1.116 -25.128 -30.514  0.00  0.00    +0.184 C 
ATOM     32  N   UNL     1       0.264 -25.543 -30.466  0.00  0.00    +0.247 N 
ATOM     33  H   UNL     1       0.540 -25.849 -31.386  0.00  0.00    +0.203 HD
ATOM     34  H   UNL     1       0.828 -24.754 -30.191  0.00  0.00    +0.203 HD
ATOM     35  C   UNL     1       0.498 -26.641 -29.517  0.00  0.00    +0.132 C 
ATOM     36  C   UNL     1      -0.860 -26.932 -28.912  0.00  0.00    +0.059 C 
ATOM     37  C   UNL     1      -1.661 -25.652 -29.179  0.00  0.00    +0.083 C 
ENDBRANCH   2  31
ENDBRANCH   5   3
ENDBRANCH   9   8
BRANCH  14  16
ATOM     16  C   UNL     1      -6.216 -30.038 -38.350  0.00  0.00    +0.053 A 
ATOM     17  C   UNL     1      -6.306 -31.106 -39.233  0.00  0.00    +0.002 A 
ATOM     18  C   UNL     1      -5.184 -31.854 -39.539  0.00  0.00    -0.004 A 
ATOM     19  C   UNL     1      -3.966 -31.542 -38.954  0.00  0.00    +0.029 A 
ATOM     26  C   UNL     1      -3.846 -30.482 -38.060  0.00  0.00    -0.004 A 
ATOM     27  C   UNL     1      -4.981 -29.740 -37.748  0.00  0.00    +0.002 A 
BRANCH  19  20
ATOM     20  N   UNL     1      -2.862 -32.323 -39.256  0.00  0.00    -0.310 N 
ATOM     21  C   UNL     1      -2.784 -32.867 -40.618  0.00  0.00    +0.155 C 
ATOM     22  C   UNL     1      -2.118 -34.220 -40.471  0.00  0.00    +0.183 C 
ATOM     23  O   UNL     1      -0.798 -33.993 -39.956  0.00  0.00    -0.376 OA
ATOM     24  C   UNL     1      -0.754 -33.572 -38.584  0.00  0.00    +0.183 C 
ATOM     25  C   UNL     1      -1.872 -32.603 -38.175  0.00  0.00    +0.155 C 
ENDBRANCH  19  20
ENDBRANCH  14  16
TORSDOF 5
