REMARK  Name = 3dcv_ligand
REMARK  4 active torsions:
REMARK  status: ('A' for Active; 'I' for Inactive)
REMARK    1  A    between atoms: C5_4  and  C6_5
REMARK    2  A    between atoms: C19_7  and  C20_8
REMARK    3  A    between atoms: C17_9  and  O18_10
REMARK    4  A    between atoms: C8_14  and  C9_16
REMARK                            x       y       z     vdW  Elec       q    Type
REMARK                         _______ _______ _______ _____ _____    ______ ____
ROOT
ATOM      1  O   UNL     1      15.687  33.560  -0.366  0.00  0.00    -0.403 OA
ATOM      2  C   UNL     1      16.322  34.324   0.392  0.00  0.00    +0.253 A 
ATOM      3  N   UNL     1      16.082  34.326   1.725  0.00  0.00    -0.206 N 
ATOM      4  H   UNL     1      15.392  33.712   2.107  0.00  0.00    +0.254 HD
ATOM      5  C   UNL     1      16.773  35.156   2.542  0.00  0.00    +0.111 A 
ATOM     12  C   UNL     1      17.725  36.013   2.004  0.00  0.00    +0.032 A 
ATOM     13  C   UNL     1      17.963  35.979   0.645  0.00  0.00    +0.018 A 
ATOM     23  N   UNL     1      17.249  35.147  -0.140  0.00  0.00    -0.282 NA
ENDROOT
BRANCH  13  14
ATOM     14  C   UNL     1      18.947  36.903   0.037  0.00  0.00    -0.011 A 
ATOM     15  C   UNL     1      18.991  37.013  -1.345  0.00  0.00    +0.001 A 
ATOM     16  C   UNL     1      19.877  37.900  -1.937  0.00  0.00    +0.024 A 
ATOM     17  C   UNL     1      20.710  38.686  -1.150  0.00  0.00    +0.098 A 
ATOM     20  C   UNL     1      20.652  38.590   0.231  0.00  0.00    -0.009 A 
ATOM     21  C   UNL     1      21.554  39.446   1.083  0.00  0.00    +0.079 C 
ATOM     22  C   UNL     1      19.762  37.701   0.827  0.00  0.00    +0.007 A 
BRANCH  17  18
ATOM     18  O   UNL     1      21.576  39.548  -1.755  0.00  0.00    -0.331 OA
ATOM     19  H   UNL     1      21.481  39.482  -2.698  0.00  0.00    +0.249 HD
ENDBRANCH  17  18
ENDBRANCH  13  14
BRANCH   5   6
ATOM      6  C   UNL     1      16.520  35.189   4.012  0.00  0.00    +0.033 A 
ATOM      7  C   UNL     1      15.251  35.520   4.486  0.00  0.00    +0.027 A 
ATOM      8  C   UNL     1      14.998  35.567   5.857  0.00  0.00    +0.009 A 
ATOM      9  C   UNL     1      16.019  35.293   6.763  0.00  0.00    +0.011 A 
ATOM     10  C   UNL     1      17.289  34.968   6.288  0.00  0.00    +0.009 A 
ATOM     11  C   UNL     1      17.544  34.921   4.916  0.00  0.00    +0.027 A 
ENDBRANCH   5   6
TORSDOF 3
