REMARK  Name = 8MN
REMARK  3 active torsions:
REMARK  status: ('A' for Active; 'I' for Inactive)
REMARK    1  A    between atoms: C5_2  and  S_11
REMARK    2  A    between atoms: C6_3  and  C7_5
REMARK    3  A    between atoms: C6_3  and  S_11
REMARK                            x       y       z     vdW  Elec       q    Type
REMARK                         _______ _______ _______ _____ _____    ______ ____
ROOT
ATOM      1  C   UNL     1     -90.933  83.320  -3.978  0.00  0.00    +0.007 A 
ATOM      2  C   UNL     1     -92.252  83.594  -3.660  0.00  0.00    +0.012 A 
ATOM      3  C   UNL     1     -93.193  83.605  -4.666  0.00  0.00    +0.058 A 
ATOM      4 CL   UNL     1     -94.853  83.961  -4.273  0.00  0.00    -0.082 Cl
ATOM      5  C   UNL     1     -92.853  83.337  -5.971  0.00  0.00    +0.012 A 
ATOM      6  C   UNL     1     -91.535  83.060  -6.283  0.00  0.00    +0.007 A 
ATOM      7  C   UNL     1     -90.569  83.059  -5.290  0.00  0.00    +0.026 A 
ENDROOT
BRANCH   7   8
ATOM      8  S   UNL     1     -88.876  82.761  -5.696  0.00  0.00    -0.104 S 
BRANCH   8   9
ATOM      9  C   UNL     1     -88.091  82.891  -4.082  0.00  0.00    +0.150 C 
BRANCH   9  10
ATOM     10  C   UNL     1     -86.916  81.951  -3.936  0.00  0.00    +0.270 C 
ATOM     11  N   UNL     1     -86.777  81.428  -2.719  0.00  0.00    -0.092 NA
ATOM     12  N   UNL     1     -85.765  80.505  -2.381  0.00  0.00    +0.007 NA
ATOM     13  O   UNL     1     -86.163  81.697  -4.878  0.00  0.00    -0.271 OA
ENDBRANCH   9  10
ENDBRANCH   8   9
ENDBRANCH   7   8
TORSDOF 3
