REMARK  Name = 6C2T
REMARK  5 active torsions:
REMARK  status: ('A' for Active; 'I' for Inactive)
REMARK    1  A    between atoms: C13_13  and  C26_26
REMARK    2  A    between atoms: C16_16  and  C27_27
REMARK    3  A    between atoms: C19_19  and  C24_24
REMARK    4  A    between atoms: C24_24  and  C27_27
REMARK    5  A    between atoms: C26_26  and  N30_30
REMARK                            x       y       z     vdW  Elec       q    Type
REMARK                         _______ _______ _______ _____ _____    ______ ____
ROOT
ATOM      8  N   UNL     1     111.282 -19.466   7.388  0.00  0.00    -0.600 NA
ATOM      9  C   UNL     1     111.378 -18.683   8.655  0.00  0.00    +0.150 C 
ATOM     10  C   UNL     1     112.734 -18.835   9.358  0.00  0.00    -0.150 C 
ATOM     11  C   UNL     1     111.092 -17.181   8.389  0.00  0.00    -0.100 C 
ATOM     12  C   UNL     1     109.745 -16.909   7.691  0.00  0.00    +0.000 C 
ATOM     30  C   UNL     1     109.610 -17.824   6.462  0.00  0.00    -0.100 C 
ATOM     34  C   UNL     1     109.936 -19.269   6.810  0.00  0.00    +0.100 C 
ENDROOT
BRANCH  12  31
ATOM     31  C   UNL     1     108.582 -17.205   8.609  0.00  0.00    +0.700 C 
ATOM     32  O   UNL     1     108.828 -16.837   9.882  0.00  0.00    -0.400 OA
ATOM     33  O   UNL     1     107.532 -17.694   8.238  0.00  0.00    -0.550 OA
ENDBRANCH  12  31
BRANCH   8   7
ATOM      7  C   UNL     1     112.352 -19.245   6.405  0.00  0.00    +0.100 C 
BRANCH   7   6
ATOM      1  C   UNL     1     112.147 -21.549   2.776  0.00  0.00    -0.130 A 
ATOM      2  C   UNL     1     112.379 -20.166   2.726  0.00  0.00    +0.200 A 
ATOM      3 CL   UNL     1     112.725 -19.364   1.246  0.00  0.00    -0.200 Cl
ATOM      4  C   UNL     1     112.421 -19.417   3.899  0.00  0.00    +0.300 A 
ATOM      5  F   UNL     1     112.658 -18.096   3.807  0.00  0.00    -0.300 F 
ATOM      6  C   UNL     1     112.241 -20.046   5.135  0.00  0.00    +0.000 A 
ATOM     35  C   UNL     1     112.000 -21.425   5.192  0.00  0.00    -0.130 A 
ATOM     36  C   UNL     1     111.978 -22.178   4.008  0.00  0.00    -0.130 A 
ENDBRANCH   7   6
ENDBRANCH   8   7
BRANCH  12  13
ATOM     13  C   UNL     1     109.657 -15.426   7.306  0.00  0.00    -0.100 C 
BRANCH  13  14
ATOM     14  C   UNL     1     108.385 -15.013   6.608  0.00  0.00    +0.380 A 
ATOM     15  N   UNL     1     108.403 -15.289   5.296  0.00  0.00    -0.760 NA
ATOM     16  C   UNL     1     107.320 -14.997   4.546  0.00  0.00    +0.430 A 
ATOM     17  N   UNL     1     107.398 -15.381   3.188  0.00  0.00    -0.350 NA
ATOM     18  C   UNL     1     108.469 -15.801   2.403  0.00  0.00    +0.150 A 
ATOM     19  S   UNL     1     109.994 -16.253   3.078  0.00  0.00    +0.000 S 
ATOM     20  C   UNL     1     110.479 -16.723   1.505  0.00  0.00    -0.100 A 
ATOM     21  C   UNL     1     109.483 -16.454   0.595  0.00  0.00    +0.000 A 
ATOM     22  N   UNL     1     108.287 -16.055   1.130  0.00  0.00    -0.200 NA
ATOM     23  C   UNL     1     106.141 -14.472   5.043  0.00  0.00    -0.130 A 
ATOM     24  C   UNL     1     106.146 -14.121   6.405  0.00  0.00    +0.000 A 
ATOM     25  C   UNL     1     104.958 -13.675   7.022  0.00  0.00    -0.130 A 
ATOM     26  C   UNL     1     104.939 -13.356   8.369  0.00  0.00    -0.130 A 
ATOM     27  C   UNL     1     106.022 -13.670   9.180  0.00  0.00    -0.130 A 
ATOM     28  C   UNL     1     107.209 -14.145   8.613  0.00  0.00    -0.130 A 
ATOM     29  C   UNL     1     107.281 -14.401   7.221  0.00  0.00    +0.000 A 
ENDBRANCH  13  14
ENDBRANCH  12  13
TORSDOF 5
