REMARK  Name = 2rfn_ligand
REMARK  13 active torsions:
REMARK  status: ('A' for Active; 'I' for Inactive)
REMARK    1  A    between atoms: N1_1  and  C33_22
REMARK    2  A    between atoms: C5_4  and  C30_44
REMARK    3  A    between atoms: C13_9  and  C30_44
REMARK    4  A    between atoms: C15_10  and  O4_33
REMARK    5  A    between atoms: C24_15  and  O3_25
REMARK    6  A    between atoms: C33_22  and  C32_23
REMARK    7  A    between atoms: C32_23  and  C31_24
REMARK    8  A    between atoms: C31_24  and  O3_25
REMARK    9  A    between atoms: C23_27  and  O2_28
REMARK   10  A    between atoms: O2_28  and  C35_29
REMARK   11  A    between atoms: C29_32  and  O4_33
REMARK   12  A    between atoms: C18_37  and  C11_38
REMARK   13  A    between atoms: N2_41  and  C34_42
REMARK                            x       y       z     vdW  Elec       q    Type
REMARK                         _______ _______ _______ _____ _____    ______ ____
ROOT
ATOM      7  C   UNL     1      60.668  11.488 122.366  0.00  0.00    +0.129 A 
ATOM      8  C   UNL     1      59.791  11.570 121.280  0.00  0.00    +0.128 A 
ATOM     11  C   UNL     1      60.257  12.054 120.054  0.00  0.00    +0.030 A 
ATOM     12  C   UNL     1      61.592  12.435 119.912  0.00  0.00    +0.027 A 
ATOM     13  C   UNL     1      62.062  12.923 118.688  0.00  0.00    +0.137 A 
ATOM     37  C   UNL     1      63.400  13.298 118.628  0.00  0.00    +0.046 A 
ATOM     38  C   UNL     1      64.212  13.185 119.765  0.00  0.00    +0.063 A 
ATOM     39  N   UNL     1      63.726  12.730 120.911  0.00  0.00    -0.329 NA
ATOM     40  C   UNL     1      62.451  12.351 121.010  0.00  0.00    +0.017 A 
ATOM     41  C   UNL     1      61.995  11.869 122.229  0.00  0.00    +0.027 A 
ENDROOT
BRANCH   8   9
ATOM      9  O   UNL     1      58.477  11.187 121.469  0.00  0.00    -0.321 OA
ATOM     10  C   UNL     1      57.820  10.447 120.425  0.00  0.00    +0.231 C 
ENDBRANCH   8   9
BRANCH   7   6
ATOM      6  O   UNL     1      60.162  10.995 123.527  0.00  0.00    -0.315 OA
BRANCH   6   5
ATOM      5  C   UNL     1      60.921  11.025 124.747  0.00  0.00    +0.198 C 
BRANCH   5   4
ATOM      4  C   UNL     1      60.240  10.109 125.781  0.00  0.00    +0.084 C 
BRANCH   4   3
ATOM      3  C   UNL     1      58.859  10.596 126.217  0.00  0.00    +0.134 C 
BRANCH   3   1
ATOM      1  N   UNL     1      58.279   9.630 127.180  0.00  0.00    +0.238 N 
ATOM      2  H   UNL     1      58.939   8.883 127.331  0.00  0.00    +0.203 HD
ATOM     42  C   UNL     1      57.065   9.014 126.551  0.00  0.00    +0.160 C 
ATOM     43  C   UNL     1      55.830   8.887 127.480  0.00  0.00    +0.210 C 
ATOM     44  O   UNL     1      55.799   9.872 128.542  0.00  0.00    -0.369 OA
ATOM     45  C   UNL     1      56.989   9.736 129.330  0.00  0.00    +0.210 C 
ATOM     46  C   UNL     1      58.117  10.336 128.484  0.00  0.00    +0.160 C 
ENDBRANCH   3   1
ENDBRANCH   4   3
ENDBRANCH   5   4
ENDBRANCH   6   5
ENDBRANCH   7   6
BRANCH  13  14
ATOM     14  O   UNL     1      61.208  13.011 117.610  0.00  0.00    -0.247 OA
BRANCH  14  15
ATOM     15  C   UNL     1      61.514  13.616 116.424  0.00  0.00    +0.152 A 
ATOM     16  C   UNL     1      61.805  12.816 115.316  0.00  0.00    +0.162 A 
ATOM     17  F   UNL     1      61.819  11.484 115.458  0.00  0.00    -0.189 F 
ATOM     18  C   UNL     1      62.109  13.359 114.073  0.00  0.00    +0.019 A 
ATOM     19  C   UNL     1      62.111  14.746 113.919  0.00  0.00    -0.038 A 
ATOM     35  C   UNL     1      61.798  15.554 115.024  0.00  0.00    -0.020 A 
ATOM     36  C   UNL     1      61.494  15.006 116.280  0.00  0.00    +0.022 A 
BRANCH  19  20
ATOM     20  C   UNL     1      62.395  15.332 112.672  0.00  0.00    +0.044 A 
ATOM     21  C   UNL     1      63.181  16.482 112.613  0.00  0.00    +0.069 A 
ATOM     22  N   UNL     1      63.465  17.074 111.459  0.00  0.00    -0.292 NA
ATOM     23  C   UNL     1      63.011  16.603 110.280  0.00  0.00    +0.168 A 
ATOM     31  N   UNL     1      62.194  15.441 110.245  0.00  0.00    -0.181 N 
ATOM     32  C   UNL     1      61.668  14.879 108.957  0.00  0.00    +0.243 C 
ATOM     33  C   UNL     1      61.888  14.798 111.468  0.00  0.00    +0.221 A 
ATOM     34  O   UNL     1      61.187  13.777 111.453  0.00  0.00    -0.405 OA
BRANCH  23  24
ATOM     24  C   UNL     1      63.379  17.366 109.006  0.00  0.00    +0.220 C 
BRANCH  24  25
ATOM     25  C   UNL     1      64.590  16.785 108.271  0.00  0.00    -0.020 A 
ATOM     26  C   UNL     1      64.507  16.580 106.894  0.00  0.00    -0.000 A 
ATOM     27  C   UNL     1      65.590  16.054 106.203  0.00  0.00    -0.008 A 
ATOM     28  C   UNL     1      66.771  15.743 106.877  0.00  0.00    -0.012 A 
ATOM     29  C   UNL     1      66.852  15.953 108.254  0.00  0.00    -0.008 A 
ATOM     30  C   UNL     1      65.761  16.471 108.957  0.00  0.00    -0.000 A 
ENDBRANCH  24  25
ENDBRANCH  23  24
ENDBRANCH  19  20
ENDBRANCH  14  15
ENDBRANCH  13  14
TORSDOF 11
