REMARK  Name = 3unk_ligand
REMARK  4 active torsions:
REMARK  status: ('A' for Active; 'I' for Inactive)
REMARK    1  A    between atoms: N01_1  and  C09_9
REMARK    2  A    between atoms: N04_4  and  C13_13
REMARK    3  A    between atoms: N04_4  and  C16_16
REMARK    4  A    between atoms: C06_6  and  C11_11
REMARK                            x       y       z     vdW  Elec       q    Type
REMARK                         _______ _______ _______ _____ _____    ______ ____
ROOT
ATOM      1  N   UNL     1      -9.936  10.771  13.652  0.00  0.00    -0.243 N 
ATOM      2  H   UNL     1      -9.498  11.399  14.341  0.00  0.00    +0.219 HD
ATOM      3  C   UNL     1     -11.059   9.994  14.080  0.00  0.00    +0.196 A 
ATOM      4  N   UNL     1     -11.372  10.030  15.375  0.00  0.00    -0.269 NA
ATOM      5  C   UNL     1     -12.412   9.329  15.850  0.00  0.00    +0.086 A 
ATOM      6  C   UNL     1     -13.159   8.565  14.954  0.00  0.00    +0.057 A 
ATOM      7  C   UNL     1     -12.824   8.536  13.605  0.00  0.00    +0.135 A 
ATOM     17  N   UNL     1     -11.760   9.268  13.206  0.00  0.00    -0.234 NA
ENDROOT
BRANCH   1  18
ATOM     18  C   UNL     1      -9.376  10.737  12.331  0.00  0.00    +0.068 A 
ATOM     19  C   UNL     1      -9.601   9.714  11.398  0.00  0.00    +0.020 A 
ATOM     20  C   UNL     1      -8.977   9.775  10.146  0.00  0.00    +0.005 A 
ATOM     21  C   UNL     1      -8.156  10.868   9.827  0.00  0.00    -0.002 A 
ATOM     25  C   UNL     1      -7.944  11.865  10.760  0.00  0.00    +0.005 A 
ATOM     26  C   UNL     1      -8.547  11.798  11.999  0.00  0.00    +0.020 A 
BRANCH  21  22
ATOM     22  C   UNL     1      -7.460  11.016   8.509  0.00  0.00    +0.055 C 
ATOM     23  O   UNL     1      -6.521  11.858   8.385  0.00  0.00    -0.564 OA
ATOM     24  O   UNL     1      -7.794  10.295   7.532  0.00  0.00    -0.564 OA
ENDBRANCH  21  22
ENDBRANCH   1  18
BRANCH   7   8
ATOM      8  N   UNL     1     -13.576   7.759  12.668  0.00  0.00    -0.255 N 
ATOM      9  H   UNL     1     -13.252   7.707  11.692  0.00  0.00    +0.217 HD
BRANCH   8  10
ATOM     10  C   UNL     1     -14.772   7.046  13.043  0.00  0.00    +0.078 A 
ATOM     11  C   UNL     1     -14.886   5.685  12.767  0.00  0.00    +0.063 A 
ATOM     12 CL   UNL     1     -13.580   4.866  12.000  0.00  0.00    -0.079 Cl
ATOM     13  C   UNL     1     -16.034   4.975  13.098  0.00  0.00    +0.002 A 
ATOM     14  C   UNL     1     -17.082   5.638  13.713  0.00  0.00    -0.021 A 
ATOM     15  C   UNL     1     -16.974   6.998  13.989  0.00  0.00    -0.012 A 
ATOM     16  C   UNL     1     -15.836   7.711  13.649  0.00  0.00    +0.016 A 
ENDBRANCH   8  10
ENDBRANCH   7   8
TORSDOF 4
