REMARK  Name = Y1Z
REMARK  5 active torsions:
REMARK  status: ('A' for Active; 'I' for Inactive)
REMARK    1  A    between atoms: SBB_2  and  CBE_4
REMARK    2  A    between atoms: SBB_2  and  NAU_11
REMARK    3  A    between atoms: NAU_11  and  CAS_12
REMARK    4  A    between atoms: CAR_13  and  NAV_14
REMARK    5  A    between atoms: CAO_22  and  CAG_24
REMARK                            x       y       z     vdW  Elec       q    Type
REMARK                         _______ _______ _______ _____ _____    ______ ____
ROOT
ATOM     12  C   UNL     1      11.100   4.851   4.233  0.00  0.00    +0.104 A 
ATOM     13  C   UNL     1      12.457   4.621   4.400  0.00  0.00    +0.021 A 
ATOM     14  C   UNL     1      13.343   4.424   3.313  0.00  0.00    +0.021 A 
ATOM     29  C   UNL     1      12.851   4.419   2.008  0.00  0.00    +0.003 A 
ATOM     30  C   UNL     1      11.487   4.700   1.825  0.00  0.00    +0.016 A 
ATOM     31  C   UNL     1      10.604   4.948   2.916  0.00  0.00    +0.065 A 
ENDROOT
BRANCH  14  15
ATOM     15  C   UNL     1      14.788   4.107   3.528  0.00  0.00    +0.101 A 
ATOM     16  C   UNL     1      15.660   4.791   4.446  0.00  0.00    +0.022 A 
ATOM     17  C   UNL     1      15.214   5.884   5.176  0.00  0.00    +0.002 A 
ATOM     18  C   UNL     1      16.059   6.549   6.046  0.00  0.00    +0.000 A 
ATOM     19  C   UNL     1      17.374   6.150   6.211  0.00  0.00    +0.000 A 
ATOM     20  C   UNL     1      17.858   5.031   5.508  0.00  0.00    +0.003 A 
ATOM     21  C   UNL     1      16.994   4.373   4.639  0.00  0.00    +0.039 A 
ATOM     22  C   UNL     1      17.397   3.276   3.874  0.00  0.00    +0.186 A 
ATOM     23  N   UNL     1      18.595   2.685   3.795  0.00  0.00    -0.127 NA
ATOM     24  N   UNL     1      18.420   1.611   2.880  0.00  0.00    -0.132 NA
ATOM     25  C   UNL     1      17.178   1.637   2.411  0.00  0.00    +0.164 A 
ATOM     26  C   UNL     1      16.493   0.735   1.440  0.00  0.00    +0.076 C 
ATOM     27  N   UNL     1      16.559   2.672   3.035  0.00  0.00    -0.195 N 
ATOM     28  N   UNL     1      15.222   3.024   2.832  0.00  0.00    -0.163 NA
ENDBRANCH  14  15
BRANCH  31  32
ATOM     32  N   UNL     1       9.245   5.260   2.658  0.00  0.00    -0.302 N 
ATOM     33  C   UNL     1       8.910   6.610   3.122  0.00  0.00    +0.123 C 
ATOM     34  C   UNL     1       7.380   6.826   3.116  0.00  0.00    +0.164 C 
ATOM     35  O   UNL     1       6.919   6.584   1.795  0.00  0.00    -0.350 OA
ATOM     36  C   UNL     1       7.160   5.247   1.360  0.00  0.00    +0.164 C 
ATOM     37  C   UNL     1       8.675   5.008   1.340  0.00  0.00    +0.123 C 
ENDBRANCH  31  32
BRANCH  12  11
ATOM     11  N   UNL     1      10.241   5.145   5.274  0.00  0.00    -0.095 NA
BRANCH  11   2
ATOM      1  O   UNL     1      11.655   6.878   6.284  0.00  0.00    -0.148 OA
ATOM      2  S   UNL     1      10.748   5.802   6.568  0.00  0.00    +0.094 S 
ATOM     10  O   UNL     1       9.538   6.171   7.320  0.00  0.00    -0.148 OA
BRANCH   2   3
ATOM      3  C   UNL     1      11.590   4.759   7.608  0.00  0.00    +0.138 A 
ATOM      4  C   UNL     1      12.334   5.122   8.728  0.00  0.00    +0.077 A 
ATOM      5  C   UNL     1      12.999   4.192   9.540  0.00  0.00    +0.013 A 
ATOM      6  C   UNL     1      12.891   2.851   9.257  0.00  0.00    +0.001 A 
ATOM      7  C   UNL     1      12.166   2.437   8.158  0.00  0.00    +0.001 A 
ATOM      8 CL   UNL     1      12.487   6.805   9.243  0.00  0.00    -0.081 Cl
ATOM      9  C   UNL     1      11.500   3.388   7.375  0.00  0.00    +0.021 A 
ENDBRANCH   2   3
ENDBRANCH  11   2
ENDBRANCH  12  11
TORSDOF 5
