REMARK  Name = 2x9e_ligand
REMARK  13 active torsions:
REMARK  status: ('A' for Active; 'I' for Inactive)
REMARK    1  A    between atoms: N5_5  and  C11_11
REMARK    2  A    between atoms: C7_7  and  C8_8
REMARK    3  A    between atoms: N9_9  and  C40_40
REMARK    4  A    between atoms: N18_18  and  C19_19
REMARK    5  A    between atoms: C20_20  and  O25_25
REMARK    6  A    between atoms: C22_22  and  C26_26
REMARK    7  A    between atoms: O25_25  and  C36_36
REMARK    8  A    between atoms: N27_27  and  C29_29
REMARK    9  A    between atoms: N32_32  and  C35_35
REMARK   10  A    between atoms: C41_41  and  C48_48
REMARK   11  A    between atoms: C45_45  and  C46_46
REMARK   12  A    between atoms: C46_46  and  C47_47
REMARK   13  A    between atoms: C48_48  and  C49_49
REMARK                            x       y       z     vdW  Elec       q    Type
REMARK                         _______ _______ _______ _____ _____    ______ ____
ROOT
ATOM      1  C   UNL     1     -10.481  24.749  -2.508  0.00  0.00    +0.069 C 
ATOM      2  C   UNL     1      -9.741  23.461  -2.316  0.00  0.00    +0.011 A 
ATOM      3  C   UNL     1     -10.090  22.125  -2.749  0.00  0.00    +0.130 A 
ATOM     18  N   UNL     1      -9.178  21.301  -2.409  0.00  0.00    -0.184 NA
ATOM     19  N   UNL     1      -8.217  21.993  -1.764  0.00  0.00    -0.198 N 
ATOM     20  C   UNL     1      -7.025  21.389  -1.229  0.00  0.00    +0.240 C 
ATOM     21  C   UNL     1      -8.582  23.352  -1.709  0.00  0.00    +0.114 A 
ATOM     22  C   UNL     1      -7.876  24.460  -1.091  0.00  0.00    +0.076 A 
ATOM     23  N   UNL     1      -6.677  24.235  -0.394  0.00  0.00    -0.260 NA
ATOM     24  C   UNL     1      -6.046  25.174   0.180  0.00  0.00    +0.196 A 
ATOM     25  N   UNL     1      -4.850  24.851   0.860  0.00  0.00    -0.246 N 
ATOM     26  H   UNL     1      -4.376  25.646   1.312  0.00  0.00    +0.215 HD
ATOM     50  N   UNL     1      -6.564  26.510   0.128  0.00  0.00    -0.266 NA
ATOM     51  C   UNL     1      -7.660  26.779  -0.496  0.00  0.00    +0.092 A 
ATOM     52  C   UNL     1      -8.393  25.703  -1.169  0.00  0.00    +0.002 A 
ATOM     53  C   UNL     1      -9.686  25.997  -1.960  0.00  0.00    +0.082 C 
ENDROOT
BRANCH  25  27
ATOM     27  C   UNL     1      -4.195  23.584   1.017  0.00  0.00    +0.100 A 
ATOM     28  C   UNL     1      -4.855  22.342   1.536  0.00  0.00    +0.012 A 
ATOM     29  C   UNL     1      -4.136  21.191   1.673  0.00  0.00    -0.008 A 
ATOM     30  C   UNL     1      -2.697  21.177   1.309  0.00  0.00    +0.029 A 
ATOM     43  C   UNL     1      -2.112  22.288   0.831  0.00  0.00    +0.033 A 
ATOM     44  C   UNL     1      -2.903  23.554   0.677  0.00  0.00    +0.130 A 
BRANCH  30  31
ATOM     31  C   UNL     1      -1.899  19.985   1.488  0.00  0.00    +0.194 C 
ATOM     32  O   UNL     1      -0.904  20.069   2.239  0.00  0.00    -0.390 OA
ATOM     33  N   UNL     1      -2.227  18.824   0.897  0.00  0.00    -0.285 N 
ATOM     34  H   UNL     1      -3.002  18.795   0.266  0.00  0.00    +0.184 HD
BRANCH  33  35
ATOM     35  C   UNL     1      -1.469  17.602   1.161  0.00  0.00    +0.107 C 
ATOM     36  C   UNL     1      -1.716  17.111   2.637  0.00  0.00    +0.078 C 
ATOM     37  C   UNL     1      -0.993  15.762   2.875  0.00  0.00    +0.133 C 
ATOM     38  N   UNL     1      -1.492  14.750   1.884  0.00  0.00    +0.233 N 
ATOM     39  H   UNL     1      -2.493  14.674   1.977  0.00  0.00    +0.203 HD
ATOM     40  C   UNL     1      -0.879  13.435   2.175  0.00  0.00    +0.190 C 
ATOM     41  C   UNL     1      -1.172  15.154   0.474  0.00  0.00    +0.133 C 
ATOM     42  C   UNL     1      -1.881  16.501   0.134  0.00  0.00    +0.078 C 
ENDBRANCH  33  35
ENDBRANCH  30  31
BRANCH  44  45
ATOM     45  O   UNL     1      -2.371  24.776   0.182  0.00  0.00    -0.229 OA
BRANCH  45  46
ATOM     46  C   UNL     1      -1.173  25.277   0.746  0.00  0.00    +0.544 C 
ATOM     47  F   UNL     1      -1.112  26.665   0.632  0.00  0.00    -0.140 F 
ATOM     48  F   UNL     1      -1.104  24.959   2.090  0.00  0.00    -0.140 F 
ATOM     49  F   UNL     1      -0.101  24.705   0.080  0.00  0.00    -0.140 F 
ENDBRANCH  45  46
ENDBRANCH  44  45
ENDBRANCH  25  27
BRANCH   3   4
ATOM      4  C   UNL     1     -11.266  21.701  -3.448  0.00  0.00    +0.235 C 
ATOM      5  O   UNL     1     -12.017  22.501  -4.026  0.00  0.00    -0.377 OA
ATOM      6  N   UNL     1     -11.502  20.389  -3.454  0.00  0.00    -0.240 N 
ATOM      7  H   UNL     1     -10.813  19.793  -3.041  0.00  0.00    +0.221 HD
BRANCH   6   8
ATOM      8  C   UNL     1     -12.645  19.781  -3.996  0.00  0.00    +0.071 A 
ATOM      9  C   UNL     1     -13.911  19.577  -3.181  0.00  0.00    -0.028 A 
ATOM     12  C   UNL     1     -14.980  18.982  -3.777  0.00  0.00    -0.034 A 
ATOM     13  C   UNL     1     -14.909  18.547  -5.185  0.00  0.00    -0.045 A 
ATOM     14  C   UNL     1     -13.777  18.730  -5.905  0.00  0.00    -0.034 A 
ATOM     15  C   UNL     1     -12.588  19.376  -5.292  0.00  0.00    -0.028 A 
BRANCH   9  10
ATOM     10  C   UNL     1     -13.964  20.037  -1.707  0.00  0.00    +0.051 C 
ATOM     11  C   UNL     1     -15.304  19.777  -0.986  0.00  0.00    +0.017 C 
ENDBRANCH   9  10
BRANCH  15  16
ATOM     16  C   UNL     1     -11.289  19.595  -6.080  0.00  0.00    +0.051 C 
ATOM     17  C   UNL     1     -11.340  19.099  -7.528  0.00  0.00    +0.017 C 
ENDBRANCH  15  16
ENDBRANCH   6   8
ENDBRANCH   3   4
TORSDOF 9
