REMARK  Name = 4nus_ligand
REMARK  5 active torsions:
REMARK  status: ('A' for Active; 'I' for Inactive)
REMARK    1  A    between atoms: C4_5  and  C7_8
REMARK    2  A    between atoms: C5_6  and  C6_7
REMARK    3  A    between atoms: C10_11  and  O1_20
REMARK    4  A    between atoms: C15_17  and  N2_22
REMARK    5  A    between atoms: N3_25  and  C22_28
REMARK                            x       y       z     vdW  Elec       q    Type
REMARK                         _______ _______ _______ _____ _____    ______ ____
ROOT
ATOM      1  C   UNL     1     -15.824   2.226 -26.869  0.00  0.00    +0.093 A 
ATOM      2  C   UNL     1     -15.294   3.488 -26.608  0.00  0.00    +0.004 A 
ATOM     13  C   UNL     1     -16.199   4.574 -26.541  0.00  0.00    -0.003 A 
ATOM     28  C   UNL     1     -17.550   4.329 -26.805  0.00  0.00    +0.036 A 
ATOM     29  C   UNL     1     -17.950   3.031 -27.068  0.00  0.00    +0.085 A 
ATOM     30  N   UNL     1     -17.120   1.986 -27.089  0.00  0.00    -0.303 NA
ENDROOT
BRANCH   2   3
ATOM      3  C   UNL     1     -13.821   3.633 -26.425  0.00  0.00    -0.025 A 
ATOM      4  C   UNL     1     -13.103   4.596 -27.138  0.00  0.00    +0.025 A 
ATOM      5  C   UNL     1     -11.781   4.803 -26.837  0.00  0.00    +0.161 A 
ATOM      6  F   UNL     1     -11.109   5.792 -27.466  0.00  0.00    -0.191 F 
ATOM      7  C   UNL     1     -11.110   4.072 -25.880  0.00  0.00    +0.157 A 
ATOM     10  C   UNL     1     -11.814   3.089 -25.213  0.00  0.00    +0.161 A 
ATOM     11  F   UNL     1     -11.184   2.320 -24.291  0.00  0.00    -0.191 F 
ATOM     12  C   UNL     1     -13.143   2.864 -25.472  0.00  0.00    +0.025 A 
BRANCH   7   8
ATOM      8  O   UNL     1      -9.827   4.438 -25.701  0.00  0.00    -0.331 OA
ATOM      9  H   UNL     1      -9.434   3.892 -25.030  0.00  0.00    +0.247 HD
ENDBRANCH   7   8
ENDBRANCH   2   3
BRANCH  13  14
ATOM     14  C   UNL     1     -15.833   5.952 -26.093  0.00  0.00    -0.022 A 
ATOM     15  C   UNL     1     -15.035   6.157 -24.966  0.00  0.00    -0.001 A 
ATOM     16  C   UNL     1     -14.619   7.427 -24.598  0.00  0.00    +0.012 A 
ATOM     17  C   UNL     1     -15.025   8.549 -25.328  0.00  0.00    +0.044 A 
ATOM     26  C   UNL     1     -15.856   8.348 -26.439  0.00  0.00    +0.012 A 
ATOM     27  C   UNL     1     -16.253   7.073 -26.805  0.00  0.00    -0.001 A 
BRANCH  17  18
ATOM     18  N   UNL     1     -14.649   9.862 -24.921  0.00  0.00    -0.297 N 
ATOM     19  C   UNL     1     -14.515  10.083 -23.475  0.00  0.00    +0.182 C 
ATOM     20  C   UNL     1     -13.929  11.458 -23.172  0.00  0.00    +0.155 C 
ATOM     21  N   UNL     1     -14.718  12.513 -23.805  0.00  0.00    +0.236 N 
ATOM     22  H   UNL     1     -15.662  12.464 -23.456  0.00  0.00    +0.203 HD
ATOM     23  C   UNL     1     -14.169  13.840 -23.482  0.00  0.00    +0.190 C 
ATOM     24  C   UNL     1     -14.741  12.303 -25.250  0.00  0.00    +0.155 C 
ATOM     25  C   UNL     1     -15.358  10.959 -25.592  0.00  0.00    +0.182 C 
ENDBRANCH  17  18
ENDBRANCH  13  14
TORSDOF 4
