REMARK  Name = 31O
REMARK  5 active torsions:
REMARK  status: ('A' for Active; 'I' for Inactive)
REMARK    1  A    between atoms: OAU_2  and  CAT_3
REMARK    2  A    between atoms: CAT_3  and  CAS_5
REMARK    3  A    between atoms: CAS_5  and  CAI_7
REMARK    4  A    between atoms: CAB_18  and  OAL_19
REMARK    5  A    between atoms: CAG_23  and  CAQ_24
REMARK                            x       y       z     vdW  Elec       q    Type
REMARK                         _______ _______ _______ _____ _____    ______ ____
ROOT
ATOM      6  C   UNL     1      17.268   7.139  -7.931  0.00  0.00    +0.172 C 
ATOM      7  C   UNL     1      16.289   6.330  -7.125  0.00  0.00    +0.170 A 
ATOM      8  N   UNL     1      15.053   6.779  -6.631  0.00  0.00    -0.131 NA
ATOM      9  N   UNL     1      14.461   5.662  -5.966  0.00  0.00    -0.133 NA
ATOM     10  C   UNL     1      15.326   4.682  -6.114  0.00  0.00    +0.147 A 
ATOM     11  C   UNL     1      15.094   3.304  -5.544  0.00  0.00    +0.074 C 
ATOM     12  N   UNL     1      16.432   5.004  -6.784  0.00  0.00    -0.279 N 
ATOM     13  C   UNL     1      17.602   4.298  -7.197  0.00  0.00    +0.068 A 
ATOM     14  C   UNL     1      18.220   3.470  -6.278  0.00  0.00    +0.021 A 
ATOM     15  C   UNL     1      19.429   2.858  -6.576  0.00  0.00    +0.038 A 
ATOM     16  C   UNL     1      19.964   2.896  -7.852  0.00  0.00    +0.139 A 
ATOM     19  C   UNL     1      19.382   3.775  -8.744  0.00  0.00    +0.040 A 
ATOM     20  C   UNL     1      18.187   4.411  -8.450  0.00  0.00    +0.036 A 
ATOM     21  C   UNL     1      17.671   5.332  -9.521  0.00  0.00    +0.078 C 
ATOM     29  N   UNL     1      17.155   6.626  -9.256  0.00  0.00    -0.264 NA
ENDROOT
BRANCH  21  22
ATOM     22  C   UNL     1      17.486   4.840 -10.929  0.00  0.00    +0.017 A 
ATOM     23  C   UNL     1      17.106   3.523 -11.124  0.00  0.00    +0.002 A 
ATOM     24  C   UNL     1      16.936   3.042 -12.408  0.00  0.00    +0.011 A 
ATOM     25  C   UNL     1      17.141   3.880 -13.480  0.00  0.00    +0.058 A 
ATOM     26  C   UNL     1      17.520   5.194 -13.285  0.00  0.00    +0.011 A 
ATOM     27 CL   UNL     1      16.913   3.263 -15.093  0.00  0.00    -0.082 Cl
ATOM     28  C   UNL     1      17.697   5.681 -12.003  0.00  0.00    +0.002 A 
ENDBRANCH  21  22
BRANCH   6   4
ATOM      4  C   UNL     1      16.960   8.611  -7.875  0.00  0.00    +0.129 C 
ATOM      5  C   UNL     1      17.125   9.113  -6.453  0.00  0.00    +0.014 C 
BRANCH   4   3
ATOM      3  C   UNL     1      17.928   9.332  -8.791  0.00  0.00    +0.319 C 
ATOM     30  O   UNL     1      19.048   8.891  -8.986  0.00  0.00    -0.250 OA
BRANCH   3   2
ATOM      1  C   UNL     1      18.523  11.252 -10.039  0.00  0.00    +0.256 C 
ATOM      2  O   UNL     1      17.498  10.507  -9.415  0.00  0.00    -0.444 OA
ENDBRANCH   3   2
ENDBRANCH   4   3
ENDBRANCH   6   4
BRANCH  16  17
ATOM     17  O   UNL     1      21.216   2.344  -8.168  0.00  0.00    -0.471 OA
ATOM     18  C   UNL     1      21.759   1.395  -7.276  0.00  0.00    +0.253 C 
ENDBRANCH  16  17
TORSDOF 5
