REMARK  Name = 1ke8_ligand
REMARK  4 active torsions:
REMARK  status: ('A' for Active; 'I' for Inactive)
REMARK    1  A    between atoms: C15_11  and  N16_12
REMARK    2  A    between atoms: N16_12  and  C17_13
REMARK    3  A    between atoms: C20_16  and  S23_19
REMARK    4  A    between atoms: S23_19  and  N26_22
REMARK                            x       y       z     vdW  Elec       q    Type
REMARK                         _______ _______ _______ _____ _____    ______ ____
ROOT
ATOM     15  C   UNL     1     -10.296  48.474   9.955  0.00  0.00    +0.070 A 
ATOM     16  C   UNL     1      -9.187  47.467   9.774  0.00  0.00    +0.020 A 
ATOM     17  C   UNL     1      -9.296  46.441   8.754  0.00  0.00    +0.018 A 
ATOM     18  C   UNL     1     -10.476  46.425   7.857  0.00  0.00    +0.105 A 
ATOM     19  C   UNL     1     -11.579  47.397   8.028  0.00  0.00    +0.018 A 
ATOM     30  C   UNL     1     -11.485  48.426   9.079  0.00  0.00    +0.020 A 
ENDROOT
BRANCH  18  20
ATOM     20  S   UNL     1     -10.560  45.159   6.618  0.00  0.00    +0.093 S 
ATOM     21  O   UNL     1     -11.648  45.394   5.712  0.00  0.00    -0.144 OA
ATOM     22  O   UNL     1      -9.244  45.091   6.068  0.00  0.00    -0.144 OA
BRANCH  20  23
ATOM     23  N   UNL     1     -10.884  43.717   7.404  0.00  0.00    -0.145 N 
ATOM     24  H   UNL     1     -10.172  43.015   7.417  0.00  0.00    +0.234 HD
ATOM     25  C   UNL     1     -12.188  43.420   8.091  0.00  0.00    +0.201 A 
ATOM     26  S   UNL     1     -12.305  42.442   9.476  0.00  0.00    +0.006 S 
ATOM     27  C   UNL     1     -13.977  42.684   9.630  0.00  0.00    +0.044 A 
ATOM     28  C   UNL     1     -14.451  43.444   8.547  0.00  0.00    -0.002 A 
ATOM     29  N   UNL     1     -13.430  43.856   7.722  0.00  0.00    -0.330 NA
ENDBRANCH  20  23
ENDBRANCH  18  20
BRANCH  15  13
ATOM     13  N   UNL     1     -10.311  49.457  10.882  0.00  0.00    -0.260 N 
ATOM     14  H   UNL     1     -10.875  50.291  10.667  0.00  0.00    +0.226 HD
BRANCH  13  12
ATOM      1  O   UNL     1     -10.819  52.155  11.823  0.00  0.00    -0.398 OA
ATOM      2  C   UNL     1     -10.007  51.912  12.719  0.00  0.00    +0.201 C 
ATOM      3  N   UNL     1      -9.501  52.781  13.629  0.00  0.00    -0.244 N 
ATOM      4  H   UNL     1      -9.743  53.749  13.695  0.00  0.00    +0.223 HD
ATOM      5  C   UNL     1      -8.606  52.133  14.447  0.00  0.00    +0.062 A 
ATOM      6  C   UNL     1      -7.812  52.660  15.575  0.00  0.00    -0.001 A 
ATOM      7  C   UNL     1      -6.968  51.723  16.370  0.00  0.00    -0.032 A 
ATOM      8  C   UNL     1      -6.904  50.277  16.015  0.00  0.00    -0.038 A 
ATOM      9  C   UNL     1      -7.676  49.761  14.849  0.00  0.00    -0.029 A 
ATOM     10  C   UNL     1      -8.524  50.721  14.079  0.00  0.00    -0.012 A 
ATOM     11  C   UNL     1      -9.381  50.543  12.932  0.00  0.00    +0.060 C 
ATOM     12  C   UNL     1      -9.592  49.449  12.180  0.00  0.00    +0.180 C 
ENDBRANCH  13  12
ENDBRANCH  15  13
TORSDOF 4
