REMARK  Name = 6QG7
REMARK  3 active torsions:
REMARK  status: ('A' for Active; 'I' for Inactive)
REMARK    1  A    between atoms: CBB_7  and  CAZ_8
REMARK    2  A    between atoms: CAY_15  and  NAM_16
REMARK    3  A    between atoms: CAO_20  and  CAC_21
REMARK                            x       y       z     vdW  Elec       q    Type
REMARK                         _______ _______ _______ _____ _____    ______ ____
ROOT
ATOM      1  C   UNL     1     -24.194   8.271  -4.768  0.00  0.00    +0.550 A 
ATOM      2  N   UNL     1     -24.695   9.147  -5.623  0.00  0.00    -0.250 N 
ATOM      3  N   UNL     1     -25.315   8.589  -6.443  0.00  0.00    -0.100 NA
ATOM      4  C   UNL     1     -25.365   7.270  -6.215  0.00  0.00    +0.100 A 
ATOM     25  N   UNL     1     -23.398   8.507  -3.715  0.00  0.00    -0.730 NA
ATOM     26  C   UNL     1     -22.902   7.468  -2.949  0.00  0.00    +0.630 A 
ATOM     27  N   UNL     1     -23.260   6.194  -3.343  0.00  0.00    -0.760 NA
ATOM     28  C   UNL     1     -24.048   6.013  -4.411  0.00  0.00    +0.430 A 
ATOM     29  N   UNL     1     -24.324   4.755  -4.711  0.00  0.00    -0.550 NA
ATOM     30  C   UNL     1     -24.532   7.039  -5.161  0.00  0.00    +0.000 A 
ENDROOT
BRANCH   4   5
ATOM      5  C   UNL     1     -25.951   6.377  -7.065  0.00  0.00    +0.000 A 
ATOM      6  C   UNL     1     -26.239   5.109  -6.588  0.00  0.00    -0.130 A 
ATOM      7  C   UNL     1     -26.830   4.098  -7.316  0.00  0.00    -0.130 A 
ATOM      8  C   UNL     1     -27.060   4.297  -8.657  0.00  0.00    -0.130 A 
ATOM      9  C   UNL     1     -26.727   5.520  -9.213  0.00  0.00    +0.000 A 
ATOM     10  C   UNL     1     -26.979   5.677 -10.569  0.00  0.00    -0.130 A 
ATOM     11  C   UNL     1     -26.678   6.867 -11.209  0.00  0.00    -0.130 A 
ATOM     12  C   UNL     1     -26.119   7.900 -10.472  0.00  0.00    -0.130 A 
ATOM     13  C   UNL     1     -25.863   7.740  -9.115  0.00  0.00    -0.130 A 
ATOM     14  C   UNL     1     -26.161   6.553  -8.451  0.00  0.00    +0.000 A 
ENDBRANCH   4   5
BRANCH   2  15
ATOM     15  C   UNL     1     -24.468  10.579  -5.296  0.00  0.00    +0.000 C 
ATOM     16  C   UNL     1     -25.381  10.981  -4.130  0.00  0.00    -0.100 C 
ATOM     17  C   UNL     1     -25.202  12.456  -3.723  0.00  0.00    -0.100 C 
ATOM     18  C   UNL     1     -25.525  13.324  -4.905  0.00  0.00    +0.000 C 
ATOM     19  N   UNL     1     -24.542  12.879  -5.900  0.00  0.00    -0.250 N 
ATOM     20  C   UNL     1     -23.406  13.588  -5.979  0.00  0.00    +0.600 C 
ATOM     21  O   UNL     1     -23.285  14.680  -5.423  0.00  0.00    -0.550 OA
ATOM     24  C   UNL     1     -24.828  11.533  -6.432  0.00  0.00    +0.000 C 
BRANCH  20  22
ATOM     22  C   UNL     1     -22.363  13.156  -7.001  0.00  0.00    -0.100 C 
ATOM     23  C   UNL     1     -21.436  14.348  -7.252  0.00  0.00    -0.100 C 
ENDBRANCH  20  22
ENDBRANCH   2  15
TORSDOF 3
