REMARK  Name = 5M5A
REMARK  5 active torsions:
REMARK  status: ('A' for Active; 'I' for Inactive)
REMARK    1  A    between atoms: C_2  and  O_3
REMARK    2  A    between atoms: C_2  and  C_5
REMARK    3  A    between atoms: O_3  and  C_4
REMARK    4  A    between atoms: C_5  and  O_6
REMARK    5  A    between atoms: C_7  and  C_9
REMARK                            x       y       z     vdW  Elec       q    Type
REMARK                         _______ _______ _______ _____ _____    ______ ____
ROOT
ATOM      3  C   UNL     1      11.584  98.406 -47.669  0.00  0.00    +0.214 C 
ATOM      4  C   UNL     1      11.046  96.985 -47.882  0.00  0.00    +0.106 C 
ATOM      5  C   UNL     1      11.718  96.112 -46.770  0.00  0.00    +0.226 C 
ATOM      6  N   UNL     1      10.624  95.433 -46.090  0.00  0.00    -0.311 N 
ATOM      7  C   UNL     1      10.255  94.125 -46.235  0.00  0.00    +0.052 A 
ATOM      8  C   UNL     1       9.013  93.910 -45.462  0.00  0.00    +0.009 A 
ATOM      9  C   UNL     1       8.707  95.210 -44.885  0.00  0.00    +0.022 A 
ATOM     10  C   UNL     1       7.661  95.820 -44.051  0.00  0.00    +0.058 A 
ATOM     11  C   UNL     1       7.609  97.238 -43.702  0.00  0.00    +0.013 A 
ATOM     12  C   UNL     1       8.694  98.106 -44.210  0.00  0.00    +0.019 A 
ATOM     13  C   UNL     1       9.021  99.512 -44.099  0.00  0.00    +0.008 A 
ATOM     14  C   UNL     1       8.325 100.474 -43.440  0.00  0.00    +0.010 A 
ATOM     15  C   UNL     1       8.839 101.761 -43.478  0.00  0.00    +0.001 A 
ATOM     16  C   UNL     1       9.989 102.066 -44.202  0.00  0.00    +0.002 A 
ATOM     17  C   UNL     1      10.727 101.090 -44.891  0.00  0.00    +0.026 A 
ATOM     18  C   UNL     1      10.262  99.767 -44.867  0.00  0.00    +0.053 A 
ATOM     19  N   UNL     1      10.637  98.539 -45.365  0.00  0.00    -0.306 N 
ATOM     20  C   UNL     1       9.771  97.541 -45.027  0.00  0.00    +0.077 A 
ATOM     21  C   UNL     1       6.454  97.518 -42.892  0.00  0.00    +0.110 C 
ATOM     22  N   UNL     1       5.782  96.186 -42.806  0.00  0.00    -0.184 NA
ATOM     23  C   UNL     1       6.478  95.208 -43.417  0.00  0.00    +0.269 C 
ATOM     24  O   UNL     1       6.083  93.974 -43.528  0.00  0.00    -0.268 OA
ATOM     25  C   UNL     1       8.378  92.674 -45.362  0.00  0.00    +0.010 A 
ATOM     26  C   UNL     1       8.992  91.612 -46.016  0.00  0.00    +0.001 A 
ATOM     27  C   UNL     1      10.183  91.780 -46.740  0.00  0.00    +0.002 A 
ATOM     28  C   UNL     1      10.825  93.018 -46.863  0.00  0.00    +0.026 A 
ATOM     29  C   UNL     1       9.755  96.092 -45.347  0.00  0.00    +0.077 A 
ATOM     30  O   UNL     1      12.340  97.018 -45.926  0.00  0.00    -0.327 OA
ATOM     31  C   UNL     1      11.884  98.337 -46.208  0.00  0.00    +0.186 C 
ATOM     32  C   UNL     1      13.081  99.171 -45.725  0.00  0.00    +0.070 C 
ENDROOT
BRANCH   3   2
ATOM      1  O   UNL     1      13.191  99.661 -48.860  0.00  0.00    -0.247 OA
ATOM      2  C   UNL     1      12.846  98.565 -48.482  0.00  0.00    +0.344 C 
BRANCH   2  35
ATOM     35  O   UNL     1      13.675  97.409 -48.755  0.00  0.00    -0.466 OA
ATOM     36  C   UNL     1      15.084  97.448 -48.564  0.00  0.00    +0.280 C 
ENDBRANCH   2  35
ENDBRANCH   3   2
BRANCH   3  33
ATOM     33  O   UNL     1      10.704  99.531 -47.864  0.00  0.00    -0.374 OA
ATOM     34  H   UNL     1      11.190 100.412 -47.565  0.00  0.00    +0.211 HD
ENDBRANCH   3  33
TORSDOF 3
