REMARK  Name = 4gu9_ligand
REMARK  2 active torsions:
REMARK  status: ('A' for Active; 'I' for Inactive)
REMARK    1  A    between atoms: C1_1  and  N4_4
REMARK    2  A    between atoms: N4_4  and  C9_9
REMARK                            x       y       z     vdW  Elec       q    Type
REMARK                         _______ _______ _______ _____ _____    ______ ____
ROOT
ATOM      1  C   UNL     1      13.088  26.881 -42.170  0.00  0.00    +0.148 A 
ATOM      2  N   UNL     1      13.277  26.311 -43.374  0.00  0.00    -0.262 NA
ATOM      3  C   UNL     1      14.357  25.593 -43.667  0.00  0.00    +0.160 A 
ATOM      4  N   UNL     1      15.332  25.433 -42.807  0.00  0.00    -0.268 NA
ATOM      5  C   UNL     1      15.263  25.974 -41.599  0.00  0.00    +0.160 A 
ATOM      6  N   UNL     1      16.100  25.981 -40.537  0.00  0.00    -0.198 N 
ATOM      7  H   UNL     1      17.024  25.528 -40.488  0.00  0.00    +0.251 HD
ATOM      8  N   UNL     1      15.480  26.719 -39.510  0.00  0.00    -0.203 NA
ATOM      9  C   UNL     1      14.324  27.182 -39.906  0.00  0.00    +0.104 A 
ATOM     19  C   UNL     1      14.125  26.732 -41.225  0.00  0.00    +0.083 A 
ENDROOT
BRANCH   1  10
ATOM     10  N   UNL     1      11.962  27.631 -41.839  0.00  0.00    -0.251 N 
ATOM     11  H   UNL     1      12.052  28.275 -41.041  0.00  0.00    +0.219 HD
BRANCH  10  12
ATOM     12  C   UNL     1      10.711  27.596 -42.488  0.00  0.00    +0.101 A 
ATOM     13  C   UNL     1      10.355  26.614 -43.435  0.00  0.00    +0.014 A 
ATOM     14  C   UNL     1       9.085  26.618 -44.014  0.00  0.00    -0.020 A 
ATOM     15  C   UNL     1       8.150  27.590 -43.653  0.00  0.00    -0.024 A 
ATOM     16  C   UNL     1       8.487  28.563 -42.706  0.00  0.00    +0.020 A 
ATOM     17  C   UNL     1       9.761  28.570 -42.136  0.00  0.00    +0.156 A 
ATOM     18  F   UNL     1      10.069  29.512 -41.227  0.00  0.00    -0.190 F 
ENDBRANCH  10  12
ENDBRANCH   1  10
TORSDOF 2
