REMARK  Name = 5OMG
REMARK  1 active torsions:
REMARK  status: ('A' for Active; 'I' for Inactive)
REMARK    1  A    between atoms: CAJ_16  and  CAG_17
REMARK                            x       y       z     vdW  Elec       q    Type
REMARK                         _______ _______ _______ _____ _____    ______ ____
ROOT
ATOM      1  C   UNL     1      -2.471   2.063 -20.421  0.00  0.00    +0.050 C 
ATOM      2  N   UNL     1      -3.054   1.106 -21.354  0.00  0.00    -0.320 N 
ATOM      3  S   UNL     1      -3.252   1.650 -23.014  0.00  0.00    +1.360 S 
ATOM      4  C   UNL     1      -1.798   1.212 -23.846  0.00  0.00    +0.060 A 
ATOM      5  C   UNL     1      -1.216   0.043 -23.414  0.00  0.00    +0.000 A 
ATOM      6  C   UNL     1      -1.763  -0.648 -22.359  0.00  0.00    +0.200 A 
ATOM      7  N   UNL     1      -1.503  -1.855 -22.022  0.00  0.00    -0.500 NA
ATOM      8  N   UNL     1      -2.125  -2.232 -20.804  0.00  0.00    -0.100 NA
ATOM      9  C   UNL     1      -2.795  -1.147 -20.421  0.00  0.00    +0.100 A 
ATOM     17  C   UNL     1      -0.057  -0.382 -24.048  0.00  0.00    -0.130 A 
ATOM     18  C   UNL     1       0.505   0.366 -25.098  0.00  0.00    -0.130 A 
ATOM     19  C   UNL     1      -0.109   1.548 -25.532  0.00  0.00    -0.130 A 
ATOM     20  C   UNL     1      -1.262   1.975 -24.889  0.00  0.00    -0.130 A 
ATOM     21  O   UNL     1      -4.310   0.814 -23.613  0.00  0.00    -0.650 OA
ATOM     22  O   UNL     1      -3.428   3.132 -22.896  0.00  0.00    -0.650 OA
ATOM     23  C   UNL     1      -2.545  -0.152 -21.319  0.00  0.00    +0.000 A 
ENDROOT
BRANCH   9  10
ATOM     10  C   UNL     1      -3.540  -1.118 -19.276  0.00  0.00    +0.000 A 
ATOM     11  C   UNL     1      -4.735  -0.457 -19.172  0.00  0.00    -0.130 A 
ATOM     12  C   UNL     1      -5.483  -0.455 -18.021  0.00  0.00    -0.130 A 
ATOM     13  C   UNL     1      -5.010  -1.158 -16.919  0.00  0.00    +0.300 A 
ATOM     14  F   UNL     1      -5.641  -1.118 -15.860  0.00  0.00    -0.300 F 
ATOM     15  C   UNL     1      -3.812  -1.841 -16.990  0.00  0.00    -0.130 A 
ATOM     16  C   UNL     1      -3.108  -1.836 -18.172  0.00  0.00    -0.130 A 
ENDBRANCH   9  10
TORSDOF 1
