REMARK  Name = A7N
REMARK  3 active torsions:
REMARK  status: ('A' for Active; 'I' for Inactive)
REMARK    1  A    between atoms: C9_2  and  C6_7
REMARK    2  A    between atoms: C3_8  and  O1_11
REMARK    3  A    between atoms: C2_9  and  O1_11
REMARK                            x       y       z     vdW  Elec       q    Type
REMARK                         _______ _______ _______ _____ _____    ______ ____
ROOT
ATOM      4  C   UNL     1     -11.081  11.565 -15.669  0.00  0.00    -0.005 A 
ATOM      5  C   UNL     1     -12.359  12.083 -15.449  0.00  0.00    +0.000 A 
ATOM      6  C   UNL     1     -12.840  13.147 -16.192  0.00  0.00    +0.037 A 
ATOM      7  C   UNL     1     -12.048  13.719 -17.181  0.00  0.00    +0.139 A 
ATOM      8  C   UNL     1     -10.775  13.217 -17.412  0.00  0.00    +0.037 A 
ATOM     12  C   UNL     1     -10.301  12.153 -16.665  0.00  0.00    +0.000 A 
ENDROOT
BRANCH   4   2
ATOM      1  C   UNL     1     -11.069  10.373 -13.423  0.00  0.00    +0.025 C 
ATOM      2  C   UNL     1     -10.553  10.405 -14.858  0.00  0.00    +0.114 C 
ATOM      3  N   UNL     1     -10.890   9.104 -15.522  0.00  0.00    -0.128 NA
ENDBRANCH   4   2
BRANCH   7   9
ATOM      9  O   UNL     1     -12.514  14.779 -17.918  0.00  0.00    -0.475 OA
BRANCH   9  10
ATOM     10  C   UNL     1     -11.643  15.346 -18.906  0.00  0.00    +0.205 C 
ATOM     11  C   UNL     1     -12.252  16.657 -19.342  0.00  0.00    +0.051 C 
ENDBRANCH   9  10
ENDBRANCH   7   9
TORSDOF 3
