REMARK  Name = 1N1
REMARK  5 active torsions:
REMARK  status: ('A' for Active; 'I' for Inactive)
REMARK    1  A    between atoms: C2_2  and  C3_3
REMARK    2  A    between atoms: N6_4  and  C20_16
REMARK    3  A    between atoms: C13_11  and  N5_30
REMARK    4  A    between atoms: C20_16  and  C21_17
REMARK    5  A    between atoms: N2_22  and  C4_23
REMARK                            x       y       z     vdW  Elec       q    Type
REMARK                         _______ _______ _______ _____ _____    ______ ____
ROOT
ATOM      1  C   UNL     1      11.495  38.595  77.507  0.00  0.00    +0.112 A 
ATOM      2  N   UNL     1      12.956  39.038  77.797  0.00  0.00    -0.221 NA
ATOM      3  C   UNL     1      13.784  38.585  76.723  0.00  0.00    +0.185 A 
ATOM      4  N   UNL     1      15.206  38.879  76.748  0.00  0.00    -0.170 NA
ATOM      5  C   UNL     1      16.139  38.390  75.764  0.00  0.00    +0.158 A 
ATOM      6  C   UNL     1      17.461  38.785  75.841  0.00  0.00    +0.070 A 
ATOM      7  C   UNL     1      18.348  38.325  74.907  0.00  0.00    +0.136 A 
ATOM     17  N   UNL     1      17.946  37.478  73.928  0.00  0.00    -0.216 NA
ATOM     18  C   UNL     1      16.597  37.090  73.862  0.00  0.00    +0.142 A 
ATOM     19  C   UNL     1      16.085  36.178  72.805  0.00  0.00    +0.074 C 
ATOM     20  N   UNL     1      15.730  37.552  74.770  0.00  0.00    -0.214 NA
ATOM     21  S   UNL     1      12.911  37.817  75.655  0.00  0.00    -0.045 S 
ATOM     22  C   UNL     1      11.478  37.878  76.242  0.00  0.00    +0.107 A 
ENDROOT
BRANCH   7   8
ATOM      8  N   UNL     1      19.731  38.724  75.031  0.00  0.00    -0.290 N 
ATOM      9  C   UNL     1      19.937  39.998  75.652  0.00  0.00    +0.110 C 
ATOM     10  C   UNL     1      21.406  40.181  76.003  0.00  0.00    +0.094 C 
ATOM     11  N   UNL     1      22.213  39.877  74.850  0.00  0.00    -0.268 NA
ATOM     15  C   UNL     1      22.030  38.521  74.395  0.00  0.00    +0.094 C 
ATOM     16  C   UNL     1      20.582  38.331  73.946  0.00  0.00    +0.110 C 
BRANCH  11  12
ATOM     12  C   UNL     1      23.609  40.224  75.066  0.00  0.00    +0.108 C 
BRANCH  12  13
ATOM     13  C   UNL     1      24.319  39.113  75.763  0.00  0.00    +0.199 C 
ATOM     14  O   UNL     1      25.106  38.408  74.745  0.00  0.00    -0.219 OA
ENDBRANCH  12  13
ENDBRANCH  11  12
ENDBRANCH   7   8
BRANCH  22  23
ATOM     23  C   UNL     1      10.143  37.346  75.707  0.00  0.00    +0.277 C 
ATOM     24  N   UNL     1       8.992  37.694  76.404  0.00  0.00    -0.174 NA
ATOM     33  O   UNL     1      10.057  36.654  74.701  0.00  0.00    -0.267 OA
BRANCH  24  25
ATOM     25  C   UNL     1       7.704  37.200  75.867  0.00  0.00    +0.080 A 
ATOM     26  C   UNL     1       7.343  35.872  76.018  0.00  0.00    +0.073 A 
ATOM     27 CL   UNL     1       8.401  34.805  76.865  0.00  0.00    -0.081 Cl
ATOM     28  C   UNL     1       6.136  35.373  75.495  0.00  0.00    +0.013 A 
ATOM     29  C   UNL     1       5.322  36.234  74.822  0.00  0.00    +0.001 A 
ATOM     30  C   UNL     1       5.676  37.568  74.664  0.00  0.00    -0.003 A 
ATOM     31  C   UNL     1       6.877  38.064  75.182  0.00  0.00    -0.006 A 
ATOM     32  C   UNL     1       7.261  39.561  74.984  0.00  0.00    +0.032 C 
ENDBRANCH  24  25
ENDBRANCH  22  23
TORSDOF 5
