REMARK  Name = V1T
REMARK  1 active torsions:
REMARK  status: ('A' for Active; 'I' for Inactive)
REMARK    1  A    between atoms: C11_6  and  C22_13
REMARK                            x       y       z     vdW  Elec       q    Type
REMARK                         _______ _______ _______ _____ _____    ______ ____
ROOT
ATOM      1  C   UNL     1      22.866  50.854  -1.970  0.00  0.00    +0.135 C 
ATOM      2  N   UNL     1      23.793  50.286  -0.999  0.00  0.00    -0.278 N 
ATOM      3  C   UNL     1      23.491  49.238  -0.157  0.00  0.00    +0.332 A 
ATOM      4  N   UNL     1      24.624  49.000   0.595  0.00  0.00    -0.278 N 
ATOM      5  C   UNL     1      24.728  47.963   1.621  0.00  0.00    +0.135 C 
ATOM      6  C   UNL     1      25.639  49.886   0.212  0.00  0.00    +0.080 A 
ATOM      7  C   UNL     1      26.946  50.056   0.654  0.00  0.00    +0.023 A 
ATOM      8  C   UNL     1      27.728  51.048   0.049  0.00  0.00    +0.058 A 
ATOM     12  C   UNL     1      27.179  51.851  -0.956  0.00  0.00    +0.006 A 
ATOM     13  C   UNL     1      25.874  51.675  -1.387  0.00  0.00    +0.019 A 
ATOM     14  O   UNL     1      22.421  48.655  -0.074  0.00  0.00    -0.246 OA
ATOM     15  C   UNL     1      25.108  50.687  -0.790  0.00  0.00    +0.080 A 
ENDROOT
BRANCH   8   9
ATOM      9  C   UNL     1      29.145  51.263   0.513  0.00  0.00    +0.284 C 
ATOM     10  O   UNL     1      29.540  50.712   1.548  0.00  0.00    -0.267 OA
ATOM     11  N   UNL     1      29.924  52.077  -0.196  0.00  0.00    -0.084 NA
ENDBRANCH   8   9
TORSDOF 1
