REMARK  Name = 0NS
REMARK  4 active torsions:
REMARK  status: ('A' for Active; 'I' for Inactive)
REMARK    1  A    between atoms: OAW_2  and  CAE_3
REMARK    2  A    between atoms: CAD_8  and  SAT_9
REMARK    3  A    between atoms: SAT_9  and  NAG_12
REMARK    4  A    between atoms: NAG_12  and  CAH_13
REMARK                            x       y       z     vdW  Elec       q    Type
REMARK                         _______ _______ _______ _____ _____    ______ ____
ROOT
ATOM      7  N   UNL     1      26.717  13.977  -1.762  0.00  0.00    -0.097 NA
ENDROOT
BRANCH   7   8
ATOM      8  C   UNL     1      27.749  14.806  -1.487  0.00  0.00    +0.091 A 
ATOM      9  C   UNL     1      27.682  15.743  -0.445  0.00  0.00    +0.017 A 
ATOM     10  C   UNL     1      28.776  16.563  -0.128  0.00  0.00    +0.015 A 
ATOM     11  C   UNL     1      28.582  17.548   1.011  0.00  0.00    +0.123 C 
ATOM     12  N   UNL     1      29.743  18.457   1.177  0.00  0.00    -0.257 N 
ATOM     13  C   UNL     1      29.670  19.555   2.194  0.00  0.00    +0.117 C 
ATOM     14  C   UNL     1      30.910  18.304   0.440  0.00  0.00    +0.328 C 
ATOM     15  O   UNL     1      31.793  19.121   0.642  0.00  0.00    -0.250 OA
ATOM     16  N   UNL     1      31.050  17.297  -0.570  0.00  0.00    -0.163 NA
ATOM     17  C   UNL     1      29.953  16.452  -0.869  0.00  0.00    +0.073 A 
ATOM     18  C   UNL     1      30.023  15.536  -1.929  0.00  0.00    +0.018 A 
ATOM     19  C   UNL     1      28.940  14.702  -2.217  0.00  0.00    +0.019 A 
ENDBRANCH   7   8
BRANCH   7   5
ATOM      5  S   UNL     1      25.212  14.498  -2.169  0.00  0.00    +0.096 S 
ATOM      6  O   UNL     1      24.559  15.163  -1.013  0.00  0.00    -0.148 OA
ATOM     20  O   UNL     1      24.425  13.374  -2.756  0.00  0.00    -0.148 OA
BRANCH   5   4
ATOM      3  C   UNL     1      26.229  15.373  -4.568  0.00  0.00    +0.158 A 
ATOM      4  C   UNL     1      25.552  15.714  -3.380  0.00  0.00    +0.161 A 
ATOM     21  C   UNL     1      25.232  17.033  -3.079  0.00  0.00    +0.023 A 
ATOM     22  C   UNL     1      25.488  18.028  -4.004  0.00  0.00    +0.002 A 
ATOM     23  C   UNL     1      26.118  17.704  -5.182  0.00  0.00    +0.003 A 
ATOM     24  C   UNL     1      26.508  16.392  -5.478  0.00  0.00    +0.038 A 
BRANCH   3   2
ATOM      1  C   UNL     1      27.325  13.822  -6.107  0.00  0.00    +0.253 C 
ATOM      2  O   UNL     1      26.578  14.080  -4.855  0.00  0.00    -0.470 OA
ENDBRANCH   3   2
ENDBRANCH   5   4
ENDBRANCH   7   5
TORSDOF 4
