REMARK  Name = 6QFT
REMARK  2 active torsions:
REMARK  status: ('A' for Active; 'I' for Inactive)
REMARK    1  A    between atoms: C5_3  and  N2_7
REMARK    2  A    between atoms: C10_6  and  C11_9
REMARK                            x       y       z     vdW  Elec       q    Type
REMARK                         _______ _______ _______ _____ _____    ______ ____
ROOT
ATOM      9  N   UNL     1     -25.291   8.989  -5.552  0.00  0.00    -0.250 N 
ATOM     10  N   UNL     1     -25.829   8.362  -6.700  0.00  0.00    -0.100 NA
ATOM     11  C   UNL     1     -25.471   7.069  -6.577  0.00  0.00    +0.050 A 
ATOM     12  I   UNL     1     -25.983   5.556  -8.012  0.00  0.00    +0.000 I 
ATOM     13  C   UNL     1     -24.690   6.814  -5.350  0.00  0.00    +0.050 A 
ATOM     14  C   UNL     1     -24.030   5.685  -4.656  0.00  0.00    +0.430 A 
ATOM     15  N   UNL     1     -23.402   5.961  -3.490  0.00  0.00    -0.760 NA
ATOM     16  C   UNL     1     -23.376   7.208  -2.979  0.00  0.00    +0.630 A 
ATOM     17  N   UNL     1     -23.955   8.276  -3.560  0.00  0.00    -0.730 NA
ATOM     18  N   UNL     1     -24.054   4.431  -5.165  0.00  0.00    -0.550 NA
ATOM     19  C   UNL     1     -24.621   8.152  -4.733  0.00  0.00    +0.550 A 
ENDROOT
BRANCH   9   6
ATOM      3  C   UNL     1     -24.335  13.488  -6.152  0.00  0.00    +0.600 C 
ATOM      4  N   UNL     1     -25.241  12.565  -6.469  0.00  0.00    -0.250 N 
ATOM      5  C   UNL     1     -24.902  11.160  -6.648  0.00  0.00    +0.000 C 
ATOM      6  C   UNL     1     -25.569  10.447  -5.478  0.00  0.00    +0.000 C 
ATOM      7  C   UNL     1     -27.072  10.685  -5.551  0.00  0.00    -0.100 C 
ATOM      8  C   UNL     1     -27.385  12.177  -5.543  0.00  0.00    -0.100 C 
ATOM     20  C   UNL     1     -26.645  12.895  -6.665  0.00  0.00    +0.000 C 
ATOM     21  O   UNL     1     -24.637  14.604  -5.762  0.00  0.00    -0.550 OA
BRANCH   3   2
ATOM      1  C   UNL     1     -22.032  14.339  -6.421  0.00  0.00    -0.100 C 
ATOM      2  C   UNL     1     -22.883  13.095  -6.291  0.00  0.00    -0.100 C 
ENDBRANCH   3   2
ENDBRANCH   9   6
TORSDOF 2
