REMARK  Name = 3FMJ
REMARK  3 active torsions:
REMARK  status: ('A' for Active; 'I' for Inactive)
REMARK    1  A    between atoms: C_1  and  C_3
REMARK    2  A    between atoms: C_2  and  C_4
REMARK    3  A    between atoms: C_5  and  C_13
REMARK                            x       y       z     vdW  Elec       q    Type
REMARK                         _______ _______ _______ _____ _____    ______ ____
ROOT
ATOM      1  C   UNL     1      18.902  12.963  31.722  0.00  0.00    +0.123 A 
ATOM      2  N   UNL     1      18.883  14.328  31.638  0.00  0.00    -0.077 NA
ATOM      3  O   UNL     1      20.244  14.769  31.522  0.00  0.00    -0.359 OA
ATOM      4  C   UNL     1      21.079  13.703  31.525  0.00  0.00    +0.144 A 
ATOM      5  C   UNL     1      22.556  13.976  31.409  0.00  0.00    +0.090 C 
ATOM     12  C   UNL     1      20.231  12.492  31.654  0.00  0.00    +0.070 A 
ENDROOT
BRANCH  12  13
ATOM     13  C   UNL     1      20.746  11.091  31.707  0.00  0.00    +0.082 A 
ATOM     14  C   UNL     1      20.233  10.101  30.875  0.00  0.00    +0.048 A 
ATOM     15  C   UNL     1      20.749   8.812  30.958  0.00  0.00    +0.116 A 
ATOM     16  N   UNL     1      21.725   8.544  31.832  0.00  0.00    -0.223 NA
ATOM     17  C   UNL     1      22.226   9.515  32.633  0.00  0.00    +0.213 A 
ATOM     18  N   UNL     1      23.222   9.218  33.505  0.00  0.00    -0.328 N 
ATOM     19  H   UNL     1      23.609   8.222  33.556  0.00  0.00    +0.145 HD
ATOM     20  H   UNL     1      23.621   9.980  34.142  0.00  0.00    +0.145 HD
ATOM     21  N   UNL     1      21.739  10.778  32.572  0.00  0.00    -0.215 NA
ENDBRANCH  12  13
BRANCH   1   6
ATOM      6  C   UNL     1      17.658  12.147  31.853  0.00  0.00    +0.004 A 
ATOM      7  C   UNL     1      16.595  12.391  30.985  0.00  0.00    +0.010 A 
ATOM      8  C   UNL     1      15.420  11.648  31.091  0.00  0.00    +0.001 A 
ATOM      9  C   UNL     1      15.308  10.664  32.069  0.00  0.00    +0.000 A 
ATOM     10  C   UNL     1      16.371  10.418  32.941  0.00  0.00    +0.001 A 
ATOM     11  C   UNL     1      17.545  11.162  32.836  0.00  0.00    +0.010 A 
ENDBRANCH   1   6
TORSDOF 2
