REMARK  Name = 4YTC
REMARK  3 active torsions:
REMARK  status: ('A' for Active; 'I' for Inactive)
REMARK    1  A    between atoms: C_3  and  N_25
REMARK    2  A    between atoms: C_6  and  N_25
REMARK    3  A    between atoms: N_16  and  C_17
REMARK                            x       y       z     vdW  Elec       q    Type
REMARK                         _______ _______ _______ _____ _____    ______ ____
ROOT
ATOM      8  C   UNL     1      13.174  14.509   3.051  0.00  0.00    +0.128 A 
ATOM      9  N   UNL     1      12.208  15.133   2.341  0.00  0.00    -0.221 NA
ATOM     10  C   UNL     1      11.366  14.317   1.684  0.00  0.00    +0.225 A 
ATOM     11  N   UNL     1      11.376  12.974   1.638  0.00  0.00    -0.216 NA
ATOM     12  C   UNL     1      12.343  12.397   2.375  0.00  0.00    +0.163 A 
ATOM     13  N   UNL     1      12.497  11.006   2.213  0.00  0.00    -0.180 N 
ATOM     14  N   UNL     1      13.532  10.398   2.912  0.00  0.00    -0.126 NA
ATOM     15  C   UNL     1      13.431   9.125   2.568  0.00  0.00    +0.241 A 
ATOM     16  N   UNL     1      14.248   8.105   3.016  0.00  0.00    -0.282 N 
ATOM     17  H   UNL     1      13.976   7.135   2.656  0.00  0.00    +0.155 HD
ATOM     24  N   UNL     1      12.399   8.857   1.704  0.00  0.00    -0.180 NA
ATOM     25  C   UNL     1      11.843  10.058   1.496  0.00  0.00    +0.219 A 
ATOM     26  N   UNL     1      10.857  10.331   0.642  0.00  0.00    -0.327 N 
ATOM     27  H   UNL     1      10.486  11.331   0.555  0.00  0.00    +0.145 HD
ATOM     28  H   UNL     1      10.436   9.550   0.043  0.00  0.00    +0.145 HD
ATOM     29  C   UNL     1      13.253  13.117   3.152  0.00  0.00    +0.092 A 
ENDROOT
BRANCH  16  18
ATOM     18  C   UNL     1      15.387   8.113   3.871  0.00  0.00    +0.034 A 
ATOM     19  C   UNL     1      15.921   6.877   4.254  0.00  0.00    +0.023 A 
ATOM     20  C   UNL     1      17.004   6.823   5.135  0.00  0.00    +0.002 A 
ATOM     21  C   UNL     1      17.560   7.986   5.629  0.00  0.00    +0.000 A 
ATOM     22  C   UNL     1      17.045   9.223   5.245  0.00  0.00    +0.002 A 
ATOM     23  C   UNL     1      15.959   9.292   4.367  0.00  0.00    +0.023 A 
ENDBRANCH  16  18
BRANCH   8   6
ATOM      6  N   UNL     1      14.265  15.199   3.550  0.00  0.00    -0.299 N 
ATOM      7  H   UNL     1      14.257  16.240   3.303  0.00  0.00    +0.154 HD
BRANCH   6   5
ATOM      1  C   UNL     1      16.634  13.207   5.633  0.00  0.00    +0.002 A 
ATOM      2  C   UNL     1      17.825  13.713   5.138  0.00  0.00    +0.000 A 
ATOM      3  C   UNL     1      17.805  14.779   4.252  0.00  0.00    +0.002 A 
ATOM      4  C   UNL     1      16.591  15.343   3.852  0.00  0.00    +0.023 A 
ATOM      5  C   UNL     1      15.389  14.814   4.319  0.00  0.00    +0.032 A 
ATOM     30  C   UNL     1      15.417  13.752   5.228  0.00  0.00    +0.023 A 
ENDBRANCH   6   5
ENDBRANCH   8   6
TORSDOF 3
