REMARK  Name = 4a9u_ligand
REMARK  5 active torsions:
REMARK  status: ('A' for Active; 'I' for Inactive)
REMARK    1  A    between atoms: C1_1  and  C2_4
REMARK    2  A    between atoms: O1_3  and  C12_16
REMARK    3  A    between atoms: O1_3  and  CAS_25
REMARK    4  A    between atoms: C5_9  and  C9_13
REMARK    5  A    between atoms: C18_21  and  CAS_25
REMARK                            x       y       z     vdW  Elec       q    Type
REMARK                         _______ _______ _______ _____ _____    ______ ____
ROOT
ATOM      9  C   UNL     1      38.503 -32.011   6.273  0.00  0.00    +0.025 A 
ATOM     10  C   UNL     1      39.166 -30.880   6.409  0.00  0.00    +0.013 A 
ATOM     11  C   UNL     1      40.018 -30.353   5.254  0.00  0.00    +0.030 A 
ATOM     12  C   UNL     1      40.094 -31.029   4.125  0.00  0.00    +0.098 A 
ATOM     13  C   UNL     1      39.332 -32.344   3.972  0.00  0.00    +0.030 A 
ATOM     24  C   UNL     1      38.597 -32.799   4.967  0.00  0.00    +0.013 A 
ENDROOT
BRANCH   9   8
ATOM      3  C   UNL     1      35.211 -33.587  11.320  0.00  0.00    +0.036 A 
ATOM      4  C   UNL     1      35.166 -34.933  10.610  0.00  0.00    -0.001 A 
ATOM      5  C   UNL     1      35.760 -35.077   9.444  0.00  0.00    -0.002 A 
ATOM      6  C   UNL     1      36.491 -33.896   8.807  0.00  0.00    +0.034 A 
ATOM      7  N   UNL     1      37.239 -33.765   7.524  0.00  0.00    -0.307 NA
ATOM      8  C   UNL     1      37.664 -32.558   7.426  0.00  0.00    +0.135 A 
ATOM     25  N   UNL     1      37.265 -31.855   8.610  0.00  0.00    -0.249 N 
ATOM     26  H   UNL     1      37.477 -30.881   8.827  0.00  0.00    +0.230 HD
ATOM     27  C   UNL     1      36.533 -32.738   9.418  0.00  0.00    +0.086 A 
ATOM     28  C   UNL     1      35.841 -32.569  10.773  0.00  0.00    +0.040 A 
BRANCH   3   1
ATOM      1  C   UNL     1      34.516 -33.425  12.670  0.00  0.00    +0.196 C 
ATOM      2  O   UNL     1      33.588 -34.109  12.946  0.00  0.00    -0.388 OA
ATOM     29  N   UNL     1      34.987 -32.432  13.613  0.00  0.00    -0.301 N 
ATOM     30  H   UNL     1      35.785 -31.843  13.377  0.00  0.00    +0.181 HD
ATOM     31  H   UNL     1      34.520 -32.322  14.513  0.00  0.00    +0.181 HD
ENDBRANCH   3   1
ENDBRANCH   9   8
BRANCH  12  14
ATOM     14  O   UNL     1      40.897 -30.563   3.078  0.00  0.00    -0.313 OA
BRANCH  14  15
ATOM     15  C   UNL     1      40.548 -29.409   2.368  0.00  0.00    +0.199 C 
BRANCH  15  16
ATOM     16  C   UNL     1      41.602 -29.080   1.456  0.00  0.00    +0.030 C 
ATOM     17  C   UNL     1      41.153 -29.207   0.114  0.00  0.00    +0.057 C 
ATOM     18  C   UNL     1      42.290 -29.009  -0.885  0.00  0.00    +0.130 C 
ATOM     19  N   UNL     1      43.302 -29.911  -0.621  0.00  0.00    +0.227 N 
ATOM     20  H   UNL     1      44.043 -29.781  -1.310  0.00  0.00    +0.201 HD
ATOM     21  H   UNL     1      42.919 -30.855  -0.668  0.00  0.00    +0.201 HD
ATOM     22  C   UNL     1      43.831 -29.710   0.642  0.00  0.00    +0.130 C 
ATOM     23  C   UNL     1      42.739 -29.904   1.697  0.00  0.00    +0.057 C 
ENDBRANCH  15  16
ENDBRANCH  14  15
ENDBRANCH  12  14
TORSDOF 5
