REMARK  Name = 4aa4_ligand
REMARK  6 active torsions:
REMARK  status: ('A' for Active; 'I' for Inactive)
REMARK    1  A    between atoms: C1_1  and  N2_2
REMARK    2  A    between atoms: N5_5  and  C8_8
REMARK    3  A    between atoms: N14_14  and  C15_15
REMARK    4  A    between atoms: C17_17  and  N18_18
REMARK    5  A    between atoms: C19_19  and  C21_21
REMARK    6  A    between atoms: C28_28  and  C29_29
REMARK                            x       y       z     vdW  Elec       q    Type
REMARK                         _______ _______ _______ _____ _____    ______ ____
ROOT
ATOM      7  C   UNL     1      -2.810   1.654  24.192  0.00  0.00    +0.041 A 
ATOM      8  C   UNL     1      -3.037   2.251  22.943  0.00  0.00    +0.025 A 
ATOM      9  C   UNL     1      -3.182   1.445  21.828  0.00  0.00    +0.059 A 
ATOM     10  C   UNL     1      -3.408   2.002  20.463  0.00  0.00    +0.257 A 
ATOM     11  O   UNL     1      -3.478   3.207  20.263  0.00  0.00    -0.376 OA
ATOM     12  N   UNL     1      -3.537   1.124  19.410  0.00  0.00    -0.146 N 
ATOM     29  C   UNL     1      -3.415  -0.236  19.604  0.00  0.00    +0.292 A 
ATOM     30  N   UNL     1      -3.200  -0.729  20.805  0.00  0.00    -0.300 NA
ATOM     31  C   UNL     1      -3.098   0.022  21.945  0.00  0.00    +0.015 A 
ATOM     32  C   UNL     1      -2.894  -0.577  23.211  0.00  0.00    -0.003 A 
ATOM     33  C   UNL     1      -2.752   0.242  24.308  0.00  0.00    +0.011 A 
ENDROOT
BRANCH   7   6
ATOM      1  C   UNL     1      -1.605   4.727  28.774  0.00  0.00    +0.190 C 
ATOM      2  N   UNL     1      -1.504   3.993  27.469  0.00  0.00    +0.236 N 
ATOM      3  H   UNL     1      -0.571   4.088  27.098  0.00  0.00    +0.203 HD
ATOM      4  C   UNL     1      -2.484   4.583  26.521  0.00  0.00    +0.155 C 
ATOM      5  C   UNL     1      -2.377   3.858  25.168  0.00  0.00    +0.179 C 
ATOM      6  N   UNL     1      -2.696   2.425  25.366  0.00  0.00    -0.301 N 
ATOM     34  C   UNL     1      -1.778   1.782  26.335  0.00  0.00    +0.179 C 
ATOM     35  C   UNL     1      -1.815   2.548  27.668  0.00  0.00    +0.155 C 
ENDBRANCH   7   6
BRANCH  12  13
ATOM     13  C   UNL     1      -3.855   1.679  18.154  0.00  0.00    +0.099 A 
ATOM     14  C   UNL     1      -5.222   1.630  17.851  0.00  0.00    -0.027 A 
ATOM     15  C   UNL     1      -6.275   1.014  18.778  0.00  0.00    +0.064 C 
ATOM     16  C   UNL     1      -5.720   2.135  16.644  0.00  0.00    -0.032 A 
ATOM     17  C   UNL     1      -4.852   2.734  15.745  0.00  0.00    -0.018 A 
ATOM     18  C   UNL     1      -3.482   2.773  16.052  0.00  0.00    +0.050 A 
ATOM     28  C   UNL     1      -2.958   2.233  17.247  0.00  0.00    +0.025 A 
BRANCH  18  19
ATOM     19  N   UNL     1      -2.652   3.342  15.077  0.00  0.00    -0.243 N 
ATOM     20  H   UNL     1      -3.033   4.045  14.477  0.00  0.00    +0.222 HD
ATOM     21  C   UNL     1      -1.363   2.984  14.912  0.00  0.00    +0.208 C 
ATOM     27  O   UNL     1      -0.753   2.159  15.578  0.00  0.00    -0.387 OA
BRANCH  21  22
ATOM     22  C   UNL     1      -0.720   3.659  13.799  0.00  0.00    +0.052 A 
ATOM     23  C   UNL     1      -1.088   4.894  13.338  0.00  0.00    +0.212 A 
ATOM     24  O   UNL     1      -0.327   5.151  12.307  0.00  0.00    -0.261 OA
ATOM     25  C   UNL     1       0.531   4.110  12.058  0.00  0.00    +0.179 A 
ATOM     26  C   UNL     1       0.368   3.115  12.960  0.00  0.00    -0.013 A 
ENDBRANCH  21  22
ENDBRANCH  18  19
ENDBRANCH  12  13
TORSDOF 4
