REMARK  Name = 3oaw_ligand
REMARK  5 active torsions:
REMARK  status: ('A' for Active; 'I' for Inactive)
REMARK    1  A    between atoms: C6_6  and  C9_9
REMARK    2  A    between atoms: C8_8  and  N10_10
REMARK    3  A    between atoms: C8_8  and  C16_16
REMARK    4  A    between atoms: C8_8  and  C17_17
REMARK    5  A    between atoms: C12_12  and  C15_15
REMARK                            x       y       z     vdW  Elec       q    Type
REMARK                         _______ _______ _______ _____ _____    ______ ____
ROOT
ATOM      1  N   UNL     1      47.344  13.085  28.405  0.00  0.00    -0.273 NA
ATOM      2  C   UNL     1      46.059  12.824  28.611  0.00  0.00    +0.035 A 
ATOM      3  C   UNL     1      45.401  11.685  27.885  0.00  0.00    +0.119 C 
ATOM      4  C   UNL     1      45.333  13.621  29.518  0.00  0.00    +0.096 A 
ATOM      5  N   UNL     1      44.041  13.358  29.800  0.00  0.00    -0.289 NA
ATOM      6  C   UNL     1      43.363  14.080  30.666  0.00  0.00    +0.118 A 
ATOM     13  C   UNL     1      44.021  15.255  31.317  0.00  0.00    +0.259 A 
ATOM     14  O   UNL     1      43.378  15.955  32.090  0.00  0.00    -0.375 OA
ATOM     15  N   UNL     1      45.341  15.535  31.023  0.00  0.00    -0.190 N 
ATOM     19  C   UNL     1      46.013  14.698  30.142  0.00  0.00    +0.163 A 
ATOM     20  N   UNL     1      47.311  14.865  29.882  0.00  0.00    -0.249 NA
ATOM     21  C   UNL     1      47.952  14.105  29.009  0.00  0.00    +0.160 A 
ATOM     22  N   UNL     1      49.279  14.373  28.729  0.00  0.00    -0.308 N 
ATOM     23  H   UNL     1      49.750  15.153  29.188  0.00  0.00    +0.183 HD
ATOM     24  H   UNL     1      49.787  13.791  28.063  0.00  0.00    +0.183 HD
ENDROOT
BRANCH   6   7
ATOM      7  C   UNL     1      41.945  13.694  30.933  0.00  0.00    +0.039 A 
ATOM      8  C   UNL     1      41.086  14.177  31.959  0.00  0.00    +0.184 A 
ATOM      9  N   UNL     1      39.932  13.600  31.837  0.00  0.00    -0.211 N 
ATOM     10  H   UNL     1      39.115  13.765  32.425  0.00  0.00    +0.263 HD
ATOM     11  N   UNL     1      40.003  12.708  30.754  0.00  0.00    -0.211 NA
ATOM     12  C   UNL     1      41.228  12.768  30.210  0.00  0.00    +0.083 A 
ENDBRANCH   6   7
BRANCH  15  16
ATOM     16  C   UNL     1      46.094  16.690  31.579  0.00  0.00    +0.135 C 
ATOM     17  C   UNL     1      46.503  16.521  33.044  0.00  0.00    +0.043 C 
ATOM     18  C   UNL     1      45.468  18.058  31.297  0.00  0.00    +0.043 C 
ENDBRANCH  15  16
TORSDOF 2
