REMARK  Name = 7WY
REMARK  2 active torsions:
REMARK  status: ('A' for Active; 'I' for Inactive)
REMARK    1  A    between atoms: N09_17  and  C23_26
REMARK    2  A    between atoms: C14_20  and  C16_21
REMARK                            x       y       z     vdW  Elec       q    Type
REMARK                         _______ _______ _______ _____ _____    ______ ____
ROOT
ATOM      1  C   UNL     1     -18.263  -4.515  -8.336  0.00  0.00    +0.053 A 
ATOM      2  C   UNL     1     -17.641  -4.321  -7.127  0.00  0.00    +0.032 A 
ATOM      3  C   UNL     1     -18.234  -3.423  -6.185  0.00  0.00    +0.003 A 
ATOM      4  C   UNL     1     -19.408  -2.747  -6.513  0.00  0.00    +0.000 A 
ATOM      5  C   UNL     1     -20.028  -2.954  -7.754  0.00  0.00    +0.003 A 
ATOM     13  C   UNL     1     -16.439  -4.971  -6.665  0.00  0.00    +0.096 A 
ATOM     14  C   UNL     1     -15.417  -4.425  -5.813  0.00  0.00    +0.100 A 
ATOM     15  C   UNL     1     -15.350  -3.056  -5.182  0.00  0.00    +0.056 C 
ATOM     16  N   UNL     1     -14.475  -5.354  -5.664  0.00  0.00    -0.133 NA
ATOM     17  N   UNL     1     -14.842  -6.433  -6.351  0.00  0.00    -0.064 NA
ATOM     18  N   UNL     1     -16.053  -6.183  -6.964  0.00  0.00    -0.230 N 
ATOM     19  C   UNL     1     -16.952  -7.038  -7.695  0.00  0.00    +0.151 C 
ATOM     20  C   UNL     1     -17.048  -6.653  -9.154  0.00  0.00    +0.122 C 
ATOM     21  C   UNL     1     -19.457  -3.832  -8.671  0.00  0.00    +0.015 A 
ATOM     22  N   UNL     1     -17.670  -5.377  -9.351  0.00  0.00    -0.285 N 
ENDROOT
BRANCH   5   6
ATOM      6  C   UNL     1     -21.196  -2.296  -8.115  0.00  0.00    +0.019 A 
ATOM      7  C   UNL     1     -21.566  -1.101  -7.520  0.00  0.00    +0.100 A 
ATOM      8  N   UNL     1     -22.702  -0.478  -7.900  0.00  0.00    -0.226 NA
ATOM      9  C   UNL     1     -23.503  -0.978  -8.858  0.00  0.00    +0.170 A 
ATOM     10  N   UNL     1     -24.691  -0.285  -9.226  0.00  0.00    -0.107 NA
ATOM     11  C   UNL     1     -23.171  -2.174  -9.487  0.00  0.00    +0.038 A 
ATOM     12  C   UNL     1     -22.009  -2.836  -9.115  0.00  0.00    +0.004 A 
ENDBRANCH   5   6
BRANCH  22  23
ATOM     23  C   UNL     1     -17.528  -4.820 -10.667  0.00  0.00    +0.052 A 
ATOM     24  C   UNL     1     -17.248  -3.463 -10.847  0.00  0.00    +0.016 A 
ATOM     25  C   UNL     1     -17.046  -2.949 -12.129  0.00  0.00    +0.013 A 
ATOM     26  C   UNL     1     -17.116  -3.797 -13.230  0.00  0.00    +0.058 A 
ATOM     27  C   UNL     1     -17.386  -5.146 -13.057  0.00  0.00    +0.013 A 
ATOM     28 CL   UNL     1     -16.863  -3.183 -14.841  0.00  0.00    -0.082 Cl
ATOM     29  C   UNL     1     -17.593  -5.659 -11.777  0.00  0.00    +0.016 A 
ENDBRANCH  22  23
TORSDOF 2
