REMARK  Name = 6CQ0
REMARK  5 active torsions:
REMARK  status: ('A' for Active; 'I' for Inactive)
REMARK    1  A    between atoms: C04_3  and  C05_4
REMARK    2  A    between atoms: C04_3  and  N02_19
REMARK    3  A    between atoms: C05_4  and  C06_5
REMARK    4  A    between atoms: C06_5  and  C07_6
REMARK    5  A    between atoms: C16_12  and  C17_13
REMARK                            x       y       z     vdW  Elec       q    Type
REMARK                         _______ _______ _______ _____ _____    ______ ____
ROOT
ATOM      6  C   UNL     1     107.912 -10.370   5.746  0.00  0.00    +0.000 A 
ATOM      7  C   UNL     1     108.087 -11.575   5.039  0.00  0.00    -0.130 A 
ATOM      8  C   UNL     1     107.941 -11.708   3.628  0.00  0.00    +0.000 A 
ATOM      9  C   UNL     1     108.127 -12.991   2.883  0.00  0.00    +0.550 A 
ATOM     10  O   UNL     1     108.446 -13.998   3.520  0.00  0.00    -0.550 OA
ATOM     11  C   UNL     1     107.921 -13.030   1.438  0.00  0.00    +0.000 A 
ATOM     12  C   UNL     1     108.040 -14.207   0.622  0.00  0.00    -0.130 A 
ATOM     13  C   UNL     1     107.831 -14.206  -0.736  0.00  0.00    +0.000 A 
ATOM     17  C   UNL     1     107.486 -12.953  -1.324  0.00  0.00    +0.430 A 
ATOM     18  N   UNL     1     107.270 -12.919  -2.694  0.00  0.00    -0.550 NA
ATOM     19  N   UNL     1     107.353 -11.766  -0.592  0.00  0.00    -0.760 NA
ATOM     20  C   UNL     1     107.576 -11.854   0.768  0.00  0.00    +0.565 A 
ATOM     21  O   UNL     1     107.436 -10.645   1.474  0.00  0.00    -0.370 OA
ATOM     22  C   UNL     1     107.599 -10.599   2.846  0.00  0.00    +0.185 A 
ATOM     23  C   UNL     1     107.419  -9.379   3.539  0.00  0.00    -0.130 A 
ATOM     24  C   UNL     1     107.570  -9.283   4.920  0.00  0.00    -0.130 A 
ENDROOT
BRANCH  13  14
ATOM     14  C   UNL     1     107.959 -15.469  -1.636  0.00  0.00    +0.200 C 
ATOM     15  O   UNL     1     108.346 -16.516  -1.094  0.00  0.00    -0.600 OA
ATOM     16  O   UNL     1     107.671 -15.331  -2.838  0.00  0.00    -0.600 OA
ENDBRANCH  13  14
BRANCH   6   5
ATOM      5  C   UNL     1     108.069 -10.228   7.295  0.00  0.00    -0.100 C 
BRANCH   5   4
ATOM      4  C   UNL     1     106.761  -9.940   8.132  0.00  0.00    -0.100 C 
BRANCH   4   3
ATOM      3  C   UNL     1     105.953  -8.628   7.786  0.00  0.00    +0.100 C 
BRANCH   3   2
ATOM      1  C   UNL     1     105.484  -8.663  10.253  0.00  0.00    +0.050 C 
ATOM      2  N   UNL     1     105.480  -7.836   9.008  0.00  0.00    -0.600 NA
ATOM     25  C   UNL     1     104.093  -7.303   8.833  0.00  0.00    +0.050 C 
ENDBRANCH   3   2
ENDBRANCH   4   3
ENDBRANCH   5   4
ENDBRANCH   6   5
TORSDOF 5
