REMARK  Name = 1oiq_ligand
REMARK  3 active torsions:
REMARK  status: ('A' for Active; 'I' for Inactive)
REMARK    1  A    between atoms: C18_2  and  C19_3
REMARK    2  A    between atoms: C11_10  and  C7_11
REMARK    3  A    between atoms: C9_15  and  C10_16
REMARK                            x       y       z     vdW  Elec       q    Type
REMARK                         _______ _______ _______ _____ _____    ______ ____
ROOT
ATOM      1  O   UNL     1      10.972  -9.721  10.717  0.00  0.00    -0.379 OA
ATOM      2  C   UNL     1      10.352 -10.552  11.391  0.00  0.00    +0.213 C 
ATOM      3  N   UNL     1      10.734 -10.925  12.619  0.00  0.00    -0.193 N 
ATOM      4  H   UNL     1      10.182 -11.607  13.099  0.00  0.00    +0.241 HD
ATOM      5  C   UNL     1      11.903 -10.394  13.289  0.00  0.00    +0.238 A 
ATOM      6  N   UNL     1      12.184 -10.698  14.663  0.00  0.00    -0.222 NA
ATOM      7  C   UNL     1      13.260 -10.178  15.246  0.00  0.00    +0.140 A 
ATOM      8  C   UNL     1      14.096  -9.396  14.586  0.00  0.00    +0.105 A 
ATOM      9  C   UNL     1      13.902  -9.080  13.285  0.00  0.00    +0.111 A 
ATOM     21  N   UNL     1      12.841  -9.542  12.624  0.00  0.00    -0.235 NA
ATOM     22  C   UNL     1       9.116 -11.183  10.819  0.00  0.00    +0.176 C 
ENDROOT
BRANCH   9  10
ATOM     10  C   UNL     1      14.840  -8.150  12.567  0.00  0.00    +0.168 A 
ATOM     11  C   UNL     1      16.165  -7.628  13.020  0.00  0.00    +0.182 A 
ATOM     12  C   UNL     1      16.944  -7.952  14.262  0.00  0.00    +0.234 C 
ATOM     13  N   UNL     1      16.613  -6.783  12.062  0.00  0.00    -0.189 N 
ATOM     14  H   UNL     1      17.511  -6.279  12.098  0.00  0.00    +0.268 HD
ATOM     15  C   UNL     1      15.685  -6.689  11.013  0.00  0.00    +0.176 A 
ATOM     16  C   UNL     1      15.711  -5.947   9.834  0.00  0.00    +0.080 A 
ATOM     17  C   UNL     1      14.645  -6.013   8.925  0.00  0.00    +0.033 A 
ATOM     18  C   UNL     1      13.553  -6.824   9.227  0.00  0.00    +0.034 A 
ATOM     19  C   UNL     1      13.555  -7.560  10.425  0.00  0.00    +0.089 A 
ATOM     20  N   UNL     1      14.585  -7.508  11.296  0.00  0.00    -0.271 N 
ENDBRANCH   9  10
TORSDOF 1
