REMARK  Name = 9LL
REMARK  3 active torsions:
REMARK  status: ('A' for Active; 'I' for Inactive)
REMARK    1  A    between atoms: C10_1  and  C09_14
REMARK    2  A    between atoms: C08_13  and  C09_14
REMARK    3  A    between atoms: C09_14  and  N18_23
REMARK                            x       y       z     vdW  Elec       q    Type
REMARK                         _______ _______ _______ _____ _____    ______ ____
ROOT
ATOM      9  C   UNL     1       6.466  21.794  11.178  0.00  0.00    +0.180 C 
ENDROOT
BRANCH   9  10
ATOM     10  N   UNL     1       7.002  20.484  11.371  0.00  0.00    -0.262 N 
ATOM     11  C   UNL     1       8.303  20.168  11.887  0.00  0.00    +0.121 C 
ATOM     12  C   UNL     1       8.419  18.638  11.912  0.00  0.00    +0.002 A 
ATOM     13  C   UNL     1       9.454  17.794  12.312  0.00  0.00    -0.003 A 
ATOM     14  C   UNL     1       9.292  16.422  12.230  0.00  0.00    -0.000 A 
ATOM     15  C   UNL     1       8.102  15.886  11.751  0.00  0.00    +0.000 A 
ATOM     16  C   UNL     1       7.075  16.722  11.354  0.00  0.00    +0.004 A 
ATOM     17  C   UNL     1       7.241  18.106  11.437  0.00  0.00    +0.051 A 
ATOM     18  C   UNL     1       6.306  19.265  11.082  0.00  0.00    +0.250 C 
ATOM     19  O   UNL     1       5.215  19.175  10.648  0.00  0.00    -0.270 OA
ENDBRANCH   9  10
BRANCH   9   1
ATOM      1  C   UNL     1       5.685  22.128  12.420  0.00  0.00    +0.270 C 
ATOM      2  O   UNL     1       6.169  21.889  13.460  0.00  0.00    -0.271 OA
ATOM      3  N   UNL     1       4.390  22.744  12.308  0.00  0.00    -0.153 NA
ATOM      4  C   UNL     1       3.648  23.093  13.488  0.00  0.00    +0.186 A 
ATOM      5  S   UNL     1       4.278  23.270  14.959  0.00  0.00    -0.049 S 
ATOM      6  C   UNL     1       2.964  23.668  15.751  0.00  0.00    +0.059 A 
ATOM      7  C   UNL     1       1.864  23.704  14.866  0.00  0.00    +0.108 A 
ATOM      8  N   UNL     1       2.296  23.362  13.513  0.00  0.00    -0.221 NA
ENDBRANCH   9   1
BRANCH   9  20
ATOM     20  C   UNL     1       7.583  22.815  11.105  0.00  0.00    +0.046 A 
ATOM     21  C   UNL     1       7.871  23.581  12.212  0.00  0.00    +0.031 A 
ATOM     22  C   UNL     1       8.871  24.519  12.158  0.00  0.00    +0.140 A 
ATOM     23  F   UNL     1       9.154  25.266  13.253  0.00  0.00    -0.204 F 
ATOM     24  C   UNL     1       9.583  24.697  10.997  0.00  0.00    +0.033 A 
ATOM     25  C   UNL     1       9.289  23.934   9.886  0.00  0.00    +0.044 A 
ATOM     26  C   UNL     1       8.286  22.993   9.940  0.00  0.00    +0.194 A 
ATOM     27  O   UNL     1       7.990  22.222   8.817  0.00  0.00    -0.287 OA
ENDBRANCH   9  20
TORSDOF 3
