REMARK  Name = 4byi_ligand
REMARK  7 active torsions:
REMARK  status: ('A' for Active; 'I' for Inactive)
REMARK    1  A    between atoms: C07_7  and  C08_8
REMARK    2  A    between atoms: N10_10  and  C11_11
REMARK    3  A    between atoms: C13_13  and  C14_14
REMARK    4  A    between atoms: C17_17  and  N18_18
REMARK    5  A    between atoms: C20_20  and  C21_21
REMARK    6  A    between atoms: C21_21  and  N22_22
REMARK    7  A    between atoms: C23_23  and  C24_24
REMARK                            x       y       z     vdW  Elec       q    Type
REMARK                         _______ _______ _______ _____ _____    ______ ____
ROOT
ATOM      1 CL   UNL     1       5.017 -28.370  -8.767  0.00  0.00    -0.085 Cl
ATOM      2  C   UNL     1       4.052 -29.717  -8.166  0.00  0.00    +0.067 A 
ATOM      3  C   UNL     1       3.998 -30.025  -6.778  0.00  0.00    +0.076 A 
ATOM     15  C   UNL     1       3.188 -31.151  -6.362  0.00  0.00    +0.071 A 
ATOM     16  N   UNL     1       2.892 -31.746  -5.128  0.00  0.00    -0.317 NA
ATOM     17  C   UNL     1       2.047 -32.798  -5.321  0.00  0.00    +0.122 A 
ATOM     25  N   UNL     1       1.791 -32.891  -6.687  0.00  0.00    -0.245 N 
ATOM     26  H   UNL     1       1.187 -33.591  -7.140  0.00  0.00    +0.231 HD
ATOM     27  C   UNL     1       2.486 -31.883  -7.333  0.00  0.00    +0.136 A 
ATOM     28  N   UNL     1       2.564 -31.548  -8.671  0.00  0.00    -0.305 NA
ATOM     29  C   UNL     1       3.323 -30.502  -9.099  0.00  0.00    +0.063 A 
ENDROOT
BRANCH  17  18
ATOM     18  C   UNL     1       1.488 -33.711  -4.192  0.00  0.00    +0.057 A 
ATOM     19  C   UNL     1       0.577 -34.728  -4.303  0.00  0.00    +0.026 A 
ATOM     20  C   UNL     1      -0.108 -35.225  -5.570  0.00  0.00    +0.091 C 
ATOM     21  N   UNL     1       0.375 -35.244  -3.065  0.00  0.00    -0.220 NA
ATOM     22  N   UNL     1       1.144 -34.553  -2.212  0.00  0.00    -0.210 N 
ATOM     23  C   UNL     1       1.212 -34.804  -0.773  0.00  0.00    +0.241 C 
ATOM     24  C   UNL     1       1.825 -33.623  -2.856  0.00  0.00    +0.182 A 
ENDBRANCH  17  18
BRANCH   3   4
ATOM      4  N   UNL     1       4.760 -29.231  -5.826  0.00  0.00    -0.302 N 
ATOM      5  C   UNL     1       3.931 -28.770  -4.701  0.00  0.00    +0.134 C 
ATOM      6  C   UNL     1       4.874 -28.259  -3.677  0.00  0.00    +0.032 C 
ATOM      7  C   UNL     1       6.196 -28.655  -4.112  0.00  0.00    +0.035 C 
ATOM     14  C   UNL     1       6.111 -28.852  -5.561  0.00  0.00    +0.139 C 
BRANCH   7   8
ATOM      8  C   UNL     1       6.561 -29.926  -3.458  0.00  0.00    +0.140 C 
BRANCH   8   9
ATOM      9  N   UNL     1       7.363 -29.868  -2.248  0.00  0.00    -0.287 N 
ATOM     10  H   UNL     1       8.361 -29.863  -2.311  0.00  0.00    +0.185 HD
ATOM     11  C   UNL     1       6.697 -29.816  -0.905  0.00  0.00    +0.173 C 
ATOM     12  O   UNL     1       5.528 -29.817  -0.826  0.00  0.00    -0.397 OA
ATOM     13  C   UNL     1       7.522 -29.760   0.310  0.00  0.00    +0.166 C 
ENDBRANCH   8   9
ENDBRANCH   7   8
ENDBRANCH   3   4
TORSDOF 4
