REMARK  Name = 4EK4
REMARK  2 active torsions:
REMARK  status: ('A' for Active; 'I' for Inactive)
REMARK    1  A    between atoms: C_4  and  C_13
REMARK    2  A    between atoms: C_12  and  C_15
REMARK                            x       y       z     vdW  Elec       q    Type
REMARK                         _______ _______ _______ _____ _____    ______ ____
ROOT
ATOM      1  N   UNL     1      -1.865  -4.285  29.716  0.00  0.00    -0.158 NA
ATOM      2  C   UNL     1      -1.848  -5.550  29.313  0.00  0.00    +0.147 A 
ATOM      3  C   UNL     1      -0.746  -5.741  28.534  0.00  0.00    +0.068 A 
ATOM      4  C   UNL     1      -0.080  -4.553  28.483  0.00  0.00    +0.035 A 
ATOM      5  C   UNL     1       1.230  -4.186  27.768  0.00  0.00    +0.065 C 
ATOM      6  N   UNL     1      -2.864  -6.385  29.700  0.00  0.00    -0.265 N 
ATOM      7  H   UNL     1      -3.500  -6.047  30.491  0.00  0.00    +0.157 HD
ATOM      8  C   UNL     1      -3.132  -7.605  29.165  0.00  0.00    +0.249 C 
ATOM     16  O   UNL     1      -2.432  -8.090  28.279  0.00  0.00    -0.270 OA
ATOM     17  N   UNL     1      -0.798  -3.698  29.183  0.00  0.00    -0.280 N 
ATOM     18  H   UNL     1      -0.553  -2.664  29.307  0.00  0.00    +0.189 HD
ENDROOT
BRANCH   8   9
ATOM      9  C   UNL     1      -4.250  -8.351  29.650  0.00  0.00    +0.037 A 
ATOM     10  C   UNL     1      -4.619  -8.303  30.997  0.00  0.00    +0.014 A 
ATOM     11  C   UNL     1      -5.707  -9.032  31.496  0.00  0.00    +0.016 A 
ATOM     12  C   UNL     1      -6.443  -9.868  30.628  0.00  0.00    +0.018 A 
ATOM     13  C   UNL     1      -6.095  -9.946  29.272  0.00  0.00    +0.016 A 
ATOM     14 BR   UNL     1      -7.916 -10.876  31.219  0.00  0.00    -0.050 Br
ATOM     15  C   UNL     1      -5.003  -9.206  28.798  0.00  0.00    +0.014 A 
ENDBRANCH   8   9
TORSDOF 1
