REMARK  Name = 4MW
REMARK  12 active torsions:
REMARK  status: ('A' for Active; 'I' for Inactive)
REMARK    1  A    between atoms: C19_2  and  C20_3
REMARK    2  A    between atoms: C20_3  and  C21_4
REMARK    3  A    between atoms: C22_18  and  C23_19
REMARK    4  A    between atoms: N3_27  and  C18_28
REMARK    5  A    between atoms: C18_28  and  C17_29
REMARK    6  A    between atoms: C17_29  and  C16_30
REMARK    7  A    between atoms: C16_30  and  C15_31
REMARK    8  A    between atoms: C15_31  and  N2_32
REMARK    9  A    between atoms: C_33  and  C1_35
REMARK   10  A    between atoms: C1_35  and  O1_36
REMARK   11  A    between atoms: O1_36  and  C2_37
REMARK   12  A    between atoms: N_45  and  C8_48
REMARK                            x       y       z     vdW  Elec       q    Type
REMARK                         _______ _______ _______ _____ _____    ______ ____
ROOT
ATOM      4  C   UNL     1     -13.306  -9.197   5.215  0.00  0.00    +0.115 C 
ENDROOT
BRANCH   4   3
ATOM      1  O   UNL     1     -11.688  -8.670   2.989  0.00  0.00    -0.273 OA
ATOM      2  C   UNL     1     -12.647  -7.920   3.186  0.00  0.00    +0.244 C 
ATOM      3  N   UNL     1     -13.495  -8.094   4.244  0.00  0.00    -0.205 NA
BRANCH   2  32
ATOM     32  C   UNL     1     -12.982  -6.743   2.284  0.00  0.00    +0.119 C 
BRANCH  32  33
ATOM     33  C   UNL     1     -11.737  -6.335   1.497  0.00  0.00    +0.171 C 
ATOM     34  N   UNL     1     -10.724  -5.760   2.431  0.00  0.00    -0.264 NA
ATOM     35  C   UNL     1      -9.476  -5.686   2.024  0.00  0.00    +0.078 C 
ATOM     43  C   UNL     1      -9.024  -5.900   0.630  0.00  0.00    +0.036 A 
ATOM     44  C   UNL     1      -7.786  -6.508   0.186  0.00  0.00    -0.017 A 
ATOM     45  C   UNL     1      -6.833  -7.182   1.093  0.00  0.00    +0.031 C 
ATOM     46  C   UNL     1      -7.635  -6.431  -1.174  0.00  0.00    +0.005 A 
ATOM     47  S   UNL     1      -8.983  -5.670  -1.946  0.00  0.00    -0.074 S 
ATOM     48  C   UNL     1      -6.483  -6.894  -1.996  0.00  0.00    +0.038 C 
ATOM     49  C   UNL     1      -9.758  -5.429  -0.433  0.00  0.00    +0.097 A 
ATOM     50  N   UNL     1     -11.042  -4.846  -0.367  0.00  0.00    -0.274 N 
ATOM     51  C   UNL     1     -11.600  -3.805  -1.102  0.00  0.00    +0.148 A 
ATOM     52  N   UNL     1     -12.854  -3.652  -0.681  0.00  0.00    -0.133 NA
ATOM     53  N   UNL     1     -13.123  -4.561   0.301  0.00  0.00    -0.131 NA
ATOM     54  C   UNL     1     -10.920  -3.002  -2.143  0.00  0.00    +0.074 C 
ATOM     55  C   UNL     1     -12.031  -5.281   0.501  0.00  0.00    +0.170 A 
BRANCH  35  36
ATOM     36  C   UNL     1      -8.507  -5.106   2.998  0.00  0.00    +0.017 A 
ATOM     37  C   UNL     1      -8.704  -5.234   4.375  0.00  0.00    +0.002 A 
ATOM     38  C   UNL     1      -7.894  -4.543   5.268  0.00  0.00    +0.011 A 
ATOM     39  C   UNL     1      -6.892  -3.731   4.787  0.00  0.00    +0.058 A 
ATOM     40 CL   UNL     1      -5.847  -2.906   5.900  0.00  0.00    -0.082 Cl
ATOM     41  C   UNL     1      -6.674  -3.588   3.427  0.00  0.00    +0.011 A 
ATOM     42  C   UNL     1      -7.490  -4.299   2.539  0.00  0.00    +0.002 A 
ENDBRANCH  35  36
ENDBRANCH  32  33
ENDBRANCH   2  32
ENDBRANCH   4   3
BRANCH   4   5
ATOM      5  C   UNL     1     -14.245  -9.055   6.449  0.00  0.00    +0.025 C 
BRANCH   5   6
ATOM      6  C   UNL     1     -14.306 -10.344   7.293  0.00  0.00    +0.025 C 
BRANCH   6   7
ATOM      7  C   UNL     1     -15.023 -10.117   8.655  0.00  0.00    +0.115 C 
BRANCH   7   8
ATOM      8  N   UNL     1     -16.026 -11.169   8.968  0.00  0.00    -0.202 NA
ATOM      9  C   UNL     1     -15.826 -12.204   9.888  0.00  0.00    +0.286 C 
ATOM     10  O   UNL     1     -14.787 -12.336  10.528  0.00  0.00    -0.269 OA
BRANCH   9  11
ATOM     11  C   UNL     1     -16.991 -13.204  10.084  0.00  0.00    +0.291 C 
BRANCH  11  12
ATOM     12  O   UNL     1     -16.595 -14.088  11.166  0.00  0.00    -0.465 OA
BRANCH  12  13
ATOM     13  C   UNL     1     -17.547 -14.532  12.090  0.00  0.00    +0.144 A 
ATOM     14  C   UNL     1     -17.431 -15.743  12.774  0.00  0.00    +0.092 A 
ATOM     15  C   UNL     1     -18.390 -16.085  13.758  0.00  0.00    +0.061 A 
ATOM     16  C   UNL     1     -18.050 -17.405  14.344  0.00  0.00    +0.256 C 
ATOM     17  O   UNL     1     -18.620 -18.009  15.226  0.00  0.00    -0.270 OA
ATOM     18  N   UNL     1     -16.863 -17.838  13.662  0.00  0.00    -0.216 N 
ATOM     27  C   UNL     1     -19.449 -15.277  14.061  0.00  0.00    +0.005 A 
ATOM     28  C   UNL     1     -19.567 -14.069  13.357  0.00  0.00    +0.003 A 
ATOM     29  C   UNL     1     -16.442 -16.854  12.694  0.00  0.00    +0.258 C 
ATOM     30  O   UNL     1     -15.461 -16.982  11.996  0.00  0.00    -0.269 OA
ATOM     31  C   UNL     1     -18.645 -13.700  12.398  0.00  0.00    +0.037 A 
BRANCH  18  19
ATOM     19  C   UNL     1     -16.128 -19.099  13.881  0.00  0.00    +0.162 C 
ATOM     20  C   UNL     1     -15.097 -18.897  14.996  0.00  0.00    +0.039 C 
ATOM     21  C   UNL     1     -14.294 -20.175  15.130  0.00  0.00    +0.089 C 
ATOM     22  C   UNL     1     -15.187 -21.286  15.588  0.00  0.00    +0.248 C 
ATOM     23  O   UNL     1     -14.818 -22.183  16.333  0.00  0.00    -0.273 OA
ATOM     24  N   UNL     1     -16.519 -21.269  15.133  0.00  0.00    -0.143 NA
ATOM     25  C   UNL     1     -17.057 -20.268  14.294  0.00  0.00    +0.266 C 
ATOM     26  O   UNL     1     -18.217 -20.376  13.918  0.00  0.00    -0.271 OA
ENDBRANCH  18  19
ENDBRANCH  12  13
ENDBRANCH  11  12
ENDBRANCH   9  11
ENDBRANCH   7   8
ENDBRANCH   6   7
ENDBRANCH   5   6
ENDBRANCH   4   5
TORSDOF 12
