REMARK  Name = 6FW
REMARK  3 active torsions:
REMARK  status: ('A' for Active; 'I' for Inactive)
REMARK    1  A    between atoms: C17_4  and  S18_24
REMARK    2  A    between atoms: C05_15  and  N07_17
REMARK    3  A    between atoms: S18_24  and  C19_25
REMARK                            x       y       z     vdW  Elec       q    Type
REMARK                         _______ _______ _______ _____ _____    ______ ____
ROOT
ATOM      1  C   UNL     1      21.198  12.379 -22.026  0.00  0.00    +0.302 C 
ATOM      2  N   UNL     1      20.460  12.540 -20.882  0.00  0.00    -0.171 NA
ATOM      3  C   UNL     1      19.202  11.939 -20.717  0.00  0.00    +0.261 C 
ATOM      4  N   UNL     1      18.501  12.136 -19.558  0.00  0.00    -0.086 NA
ATOM      5  N   UNL     1      18.602  11.151 -21.717  0.00  0.00    -0.192 NA
ATOM      6  C   UNL     1      19.350  10.978 -22.918  0.00  0.00    +0.173 C 
ATOM      7  N   UNL     1      19.020  10.298 -24.014  0.00  0.00    -0.266 NA
ATOM     20  C   UNL     1      20.069  10.469 -24.851  0.00  0.00    +0.178 C 
ATOM     21  N   UNL     1      21.048  11.239 -24.337  0.00  0.00    -0.214 NA
ATOM     30  O   UNL     1      22.299  12.909 -22.150  0.00  0.00    -0.263 OA
ATOM     31  C   UNL     1      20.576  11.559 -23.088  0.00  0.00    +0.175 C 
ENDROOT
BRANCH   7   8
ATOM      8  C   UNL     1      17.984   9.628 -24.255  0.00  0.00    +0.241 C 
ATOM      9  C   UNL     1      17.570   8.413 -23.197  0.00  0.00    +0.231 C 
ATOM     10  C   UNL     1      16.452   8.714 -22.587  0.00  0.00    +0.186 C 
ATOM     11  O   UNL     1      15.517   7.726 -22.089  0.00  0.00    -0.311 OA
ATOM     12  P   UNL     1      14.127   8.338 -21.481  0.00  0.00    +0.214 P 
ATOM     13  O   UNL     1      14.409   9.176 -20.210  0.00  0.00    -0.437 OA
ATOM     14  O   UNL     1      13.152   7.244 -21.333  0.00  0.00    -0.517 OA
ATOM     15  O   UNL     1      13.526   9.341 -22.680  0.00  0.00    -0.311 OA
ATOM     16  C   UNL     1      14.475  10.421 -23.184  0.00  0.00    +0.181 C 
ATOM     17  C   UNL     1      15.689   9.765 -23.743  0.00  0.00    +0.177 C 
ATOM     18  O   UNL     1      17.365   7.231 -24.044  0.00  0.00    -0.216 OA
ATOM     19  O   UNL     1      16.651  10.494 -24.216  0.00  0.00    -0.331 OA
ENDBRANCH   7   8
BRANCH  20  22
ATOM     22  S   UNL     1      20.174   9.754 -26.419  0.00  0.00    -0.050 S 
BRANCH  22  23
ATOM     23  C   UNL     1      21.087   8.287 -26.063  0.00  0.00    +0.032 A 
ATOM     24  C   UNL     1      22.443   8.392 -25.828  0.00  0.00    +0.007 A 
ATOM     25  C   UNL     1      23.179   7.259 -25.568  0.00  0.00    +0.012 A 
ATOM     26  C   UNL     1      22.555   6.019 -25.521  0.00  0.00    +0.058 A 
ATOM     27 CL   UNL     1      23.495   4.582 -25.204  0.00  0.00    -0.082 Cl
ATOM     28  C   UNL     1      21.196   5.924 -25.759  0.00  0.00    +0.012 A 
ATOM     29  C   UNL     1      20.460   7.058 -26.018  0.00  0.00    +0.007 A 
ENDBRANCH  22  23
ENDBRANCH  20  22
TORSDOF 3
