REMARK  Name = 5J7B
REMARK  6 active torsions:
REMARK  status: ('A' for Active; 'I' for Inactive)
REMARK    1  A    between atoms: C_4  and  N_22
REMARK    2  A    between atoms: C_11  and  C_12
REMARK    3  A    between atoms: C_12  and  C_13
REMARK    4  A    between atoms: C_12  and  C_14
REMARK    5  A    between atoms: C_12  and  S_15
REMARK    6  A    between atoms: S_15  and  C_18
REMARK                            x       y       z     vdW  Elec       q    Type
REMARK                         _______ _______ _______ _____ _____    ______ ____
ROOT
ATOM      1  C   UNL     1     -40.737  38.041  -4.526  0.00  0.00    +0.030 A 
ATOM      2  C   UNL     1     -40.647  37.144  -3.439  0.00  0.00    +0.073 A 
ATOM      3  C   UNL     1     -40.008  37.564  -2.240  0.00  0.00    +0.023 A 
ATOM      4  C   UNL     1     -39.476  38.881  -2.178  0.00  0.00    +0.039 A 
ATOM      5  C   UNL     1     -39.614  39.728  -3.271  0.00  0.00    +0.089 A 
ATOM     13  C   UNL     1     -39.964  36.620  -1.166  0.00  0.00    +0.043 A 
ATOM     27  C   UNL     1     -40.509  35.366  -1.343  0.00  0.00    +0.043 A 
ATOM     28  C   UNL     1     -41.108  35.063  -2.554  0.00  0.00    +0.113 A 
ATOM     29  N   UNL     1     -41.194  35.894  -3.587  0.00  0.00    -0.255 NA
ATOM     30  C   UNL     1     -40.222  39.300  -4.445  0.00  0.00    +0.029 A 
ENDROOT
BRANCH  13  14
ATOM     14  N   UNL     1     -39.338  36.989   0.052  0.00  0.00    -0.297 N 
ATOM     15  H   UNL     1     -38.749  37.881  -0.001  0.00  0.00    +0.154 HD
ATOM     16  C   UNL     1     -39.362  36.426   1.214  0.00  0.00    +0.153 A 
ATOM     17  N   UNL     1     -39.895  36.918   2.353  0.00  0.00    -0.158 NA
ATOM     18  N   UNL     1     -39.650  35.989   3.284  0.00  0.00    -0.275 N 
ATOM     19  H   UNL     1     -39.967  36.082   4.302  0.00  0.00    +0.189 HD
ATOM     20  C   UNL     1     -38.947  34.894   2.805  0.00  0.00    +0.068 A 
ATOM     21  C   UNL     1     -38.474  33.714   3.397  0.00  0.00    +0.030 A 
ATOM     22  C   UNL     1     -37.788  32.796   2.617  0.00  0.00    +0.040 A 
ATOM     23  C   UNL     1     -37.589  33.080   1.282  0.00  0.00    +0.124 A 
ATOM     24  C   UNL     1     -38.038  34.240   0.660  0.00  0.00    +0.052 A 
ATOM     25  F   UNL     1     -36.921  32.179   0.529  0.00  0.00    -0.205 F 
ATOM     26  C   UNL     1     -38.728  35.139   1.464  0.00  0.00    +0.044 A 
ENDBRANCH  13  14
BRANCH   5   6
ATOM      6  S   UNL     1     -38.932  41.355  -3.216  0.00  0.00    +0.002 S 
ATOM      7  O   UNL     1     -38.719  41.791  -4.571  0.00  0.00    -0.169 OA
ATOM      8  O   UNL     1     -37.808  41.305  -2.324  0.00  0.00    -0.169 OA
BRANCH   6   9
ATOM      9  C   UNL     1     -40.165  42.475  -2.477  0.00  0.00    +0.085 C 
ATOM     10  C   UNL     1     -40.512  41.981  -1.071  0.00  0.00    +0.035 C 
ATOM     11  C   UNL     1     -41.382  42.469  -3.381  0.00  0.00    +0.035 C 
ATOM     12  C   UNL     1     -39.527  43.871  -2.430  0.00  0.00    +0.035 C 
ENDBRANCH   6   9
ENDBRANCH   5   6
TORSDOF 3
