REMARK  Name = 5D2
REMARK  6 active torsions:
REMARK  status: ('A' for Active; 'I' for Inactive)
REMARK    1  A    between atoms: CAC_7  and  NAH_8
REMARK    2  A    between atoms: NAK_13  and  CAN_14
REMARK    3  A    between atoms: CAN_14  and  CAO_15
REMARK    4  A    between atoms: CAO_15  and  CAP_16
REMARK    5  A    between atoms: CAP_16  and  NAQ_17
REMARK    6  A    between atoms: CAR_18  and  CAS_20
REMARK                            x       y       z     vdW  Elec       q    Type
REMARK                         _______ _______ _______ _____ _____    ______ ____
ROOT
ATOM     15  N   UNL     1     -14.406   6.685  -1.143  0.00  0.00    -0.205 NA
ATOM     16  C   UNL     1     -14.670   7.871  -1.674  0.00  0.00    +0.241 C 
ATOM     17  O   UNL     1     -14.033   8.926  -1.450  0.00  0.00    -0.273 OA
ENDROOT
BRANCH  16  18
ATOM     18  C   UNL     1     -15.802   7.767  -2.667  0.00  0.00    +0.082 C 
ATOM     19  C   UNL     1     -16.535   9.121  -2.757  0.00  0.00    +0.031 C 
ATOM     20  C   UNL     1     -17.436   8.977  -3.977  0.00  0.00    +0.093 C 
ATOM     21  N   UNL     1     -16.510   8.885  -5.182  0.00  0.00    -0.292 N 
ATOM     22  C   UNL     1     -15.857   7.560  -5.312  0.00  0.00    +0.093 C 
ATOM     23  C   UNL     1     -16.082   9.946  -5.856  0.00  0.00    +0.152 A 
ATOM     24  C   UNL     1     -16.389  11.246  -5.369  0.00  0.00    +0.039 A 
ATOM     25  C   UNL     1     -15.891  12.321  -6.127  0.00  0.00    +0.044 A 
ATOM     26  C   UNL     1     -15.086  12.152  -7.207  0.00  0.00    +0.186 A 
ATOM     27  N   UNL     1     -14.810  10.892  -7.598  0.00  0.00    -0.194 N 
ATOM     28  C   UNL     1     -14.033  10.988  -8.657  0.00  0.00    +0.164 A 
ATOM     29  N   UNL     1     -13.793  12.272  -8.987  0.00  0.00    -0.132 NA
ATOM     30  C   UNL     1     -13.585   9.767  -9.435  0.00  0.00    +0.076 C 
ATOM     31  N   UNL     1     -14.475  13.014  -8.055  0.00  0.00    -0.127 NA
ATOM     32  N   UNL     1     -15.330   9.779  -6.965  0.00  0.00    -0.147 NA
ATOM     33  C   UNL     1     -15.122   7.251  -3.989  0.00  0.00    +0.031 C 
ENDBRANCH  16  18
BRANCH  15  14
ATOM     14  C   UNL     1     -13.216   6.528  -0.359  0.00  0.00    +0.117 C 
BRANCH  14  13
ATOM     13  C   UNL     1     -13.316   5.429   0.589  0.00  0.00    +0.041 C 
BRANCH  13  12
ATOM     12  C   UNL     1     -12.666   5.862   1.882  0.00  0.00    +0.074 C 
BRANCH  12  11
ATOM      8  N   UNL     1      -8.592   6.152   2.285  0.00  0.00    -0.305 N 
ATOM      9  C   UNL     1      -9.385   6.047   3.521  0.00  0.00    +0.108 C 
ATOM     10  C   UNL     1     -10.810   6.284   3.210  0.00  0.00    +0.094 C 
ATOM     11  N   UNL     1     -11.222   5.628   1.974  0.00  0.00    -0.270 NA
ATOM     34  C   UNL     1     -10.377   5.899   0.788  0.00  0.00    +0.094 C 
ATOM     35  C   UNL     1      -9.080   5.397   1.111  0.00  0.00    +0.108 C 
BRANCH   8   7
ATOM      1  C   UNL     1      -6.775   7.296   3.261  0.00  0.00    +0.026 A 
ATOM      2  C   UNL     1      -5.691   8.147   3.004  0.00  0.00    +0.059 A 
ATOM      3 CL   UNL     1      -4.959   8.514   4.243  0.00  0.00    -0.082 Cl
ATOM      4  C   UNL     1      -5.192   8.532   1.774  0.00  0.00    +0.012 A 
ATOM      5  C   UNL     1      -5.907   8.145   0.672  0.00  0.00    +0.002 A 
ATOM      6  C   UNL     1      -7.024   7.356   0.901  0.00  0.00    +0.015 A 
ATOM      7  C   UNL     1      -7.499   6.924   2.170  0.00  0.00    +0.049 A 
ENDBRANCH   8   7
ENDBRANCH  12  11
ENDBRANCH  13  12
ENDBRANCH  14  13
ENDBRANCH  15  14
TORSDOF 6
