REMARK  Name = 2uze_ligand
REMARK  3 active torsions:
REMARK  status: ('A' for Active; 'I' for Inactive)
REMARK    1  A    between atoms: C16_3  and  C19_20
REMARK    2  A    between atoms: C13_6  and  C4_9
REMARK    3  A    between atoms: C1_13  and  C6_14
REMARK                            x       y       z     vdW  Elec       q    Type
REMARK                         _______ _______ _______ _____ _____    ______ ____
ROOT
ATOM      7  C   UNL     1      72.885  59.033  18.666  0.00  0.00    +0.125 A 
ATOM      8  C   UNL     1      74.176  58.946  19.032  0.00  0.00    -0.004 A 
ATOM      9  C   UNL     1      74.626  57.708  18.675  0.00  0.00    -0.006 A 
ATOM     10  C   UNL     1      73.608  57.046  18.087  0.00  0.00    +0.116 A 
ATOM     21  O   UNL     1      72.547  57.865  18.071  0.00  0.00    -0.255 OA
ENDROOT
BRANCH  10  11
ATOM     11  C   UNL     1      73.635  55.671  17.513  0.00  0.00    +0.062 C 
ATOM     12  C   UNL     1      72.575  55.238  16.847  0.00  0.00    +0.123 C 
ATOM     13  C   UNL     1      72.552  54.119  15.980  0.00  0.00    +0.254 C 
ATOM     14  O   UNL     1      73.526  53.399  15.729  0.00  0.00    -0.372 OA
ATOM     15  N   UNL     1      71.313  53.932  15.439  0.00  0.00    -0.190 N 
ATOM     16  H   UNL     1      71.093  53.186  14.811  0.00  0.00    +0.244 HD
ATOM     17  C   UNL     1      70.409  54.863  15.841  0.00  0.00    +0.193 C 
ATOM     18  N   UNL     1      69.132  54.891  15.437  0.00  0.00    -0.384 NA
ATOM     19  H   UNL     1      68.788  54.186  14.804  0.00  0.00    +0.055 HD
ATOM     20  S   UNL     1      71.078  55.988  16.892  0.00  0.00    +0.036 S 
ENDBRANCH  10  11
BRANCH   7   6
ATOM      3  C   UNL     1      70.235  62.398  18.963  0.00  0.00    +0.007 A 
ATOM      4  C   UNL     1      69.899  61.288  18.197  0.00  0.00    +0.014 A 
ATOM      5  C   UNL     1      70.753  60.204  18.124  0.00  0.00    +0.010 A 
ATOM      6  C   UNL     1      71.976  60.214  18.803  0.00  0.00    +0.013 A 
ATOM     22  C   UNL     1      72.345  61.330  19.557  0.00  0.00    +0.010 A 
ATOM     23  C   UNL     1      71.460  62.423  19.656  0.00  0.00    +0.014 A 
BRANCH   3   2
ATOM      1  O   UNL     1      68.217  63.537  18.402  0.00  0.00    -0.562 OA
ATOM      2  C   UNL     1      69.276  63.569  19.036  0.00  0.00    +0.061 C 
ATOM     24  O   UNL     1      69.554  64.586  19.746  0.00  0.00    -0.562 OA
ENDBRANCH   3   2
ENDBRANCH   7   6
TORSDOF 3
