REMARK  Name = 3fqh_ligand
REMARK  8 active torsions:
REMARK  status: ('A' for Active; 'I' for Inactive)
REMARK    1  A    between atoms: C20_2  and  C15_9
REMARK    2  A    between atoms: N22_3  and  C23_4
REMARK    3  A    between atoms: C23_4  and  C26_5
REMARK    4  A    between atoms: C23_4  and  C27_6
REMARK    5  A    between atoms: C23_4  and  C24_7
REMARK    6  A    between atoms: C24_7  and  O25_8
REMARK    7  A    between atoms: N11_13  and  C19_14
REMARK    8  A    between atoms: C10_18  and  C9_19
REMARK                            x       y       z     vdW  Elec       q    Type
REMARK                         _______ _______ _______ _____ _____    ______ ____
ROOT
ATOM      3  C   UNL     1      -6.171  -4.417  11.264  0.00  0.00    +0.034 A 
ATOM      4  C   UNL     1      -4.921  -3.837  11.557  0.00  0.00    +0.010 A 
ATOM      5  C   UNL     1      -4.860  -2.757  12.447  0.00  0.00    -0.004 A 
ATOM      6  C   UNL     1      -3.834  -1.974  12.951  0.00  0.00    +0.017 A 
ATOM     17  C   UNL     1      -4.328  -1.021  13.824  0.00  0.00    +0.150 A 
ATOM     18  N   UNL     1      -5.661  -1.214  13.875  0.00  0.00    -0.259 N 
ATOM     19  C   UNL     1      -6.591  -0.397  14.699  0.00  0.00    +0.216 C 
ATOM     20  C   UNL     1      -6.009  -2.243  13.062  0.00  0.00    +0.075 A 
ATOM     21  C   UNL     1      -7.243  -2.829  12.766  0.00  0.00    +0.019 A 
ATOM     22  C   UNL     1      -7.322  -3.904  11.878  0.00  0.00    +0.002 A 
ENDROOT
BRANCH   6   7
ATOM      7  C   UNL     1      -2.463  -2.052  12.657  0.00  0.00    +0.048 A 
ATOM      8  C   UNL     1      -1.828  -3.194  12.202  0.00  0.00    -0.037 A 
ATOM      9  C   UNL     1      -0.498  -2.669  12.101  0.00  0.00    -0.007 A 
ATOM     10  C   UNL     1      -0.420  -1.335  12.475  0.00  0.00    +0.130 A 
ATOM     11  N   UNL     1       0.761  -0.666  12.421  0.00  0.00    -0.290 NA
ATOM     12  C   UNL     1       1.889  -1.289  12.019  0.00  0.00    +0.063 A 
ATOM     13  C   UNL     1       1.861  -2.627  11.632  0.00  0.00    +0.004 A 
ATOM     14  C   UNL     1       0.654  -3.331  11.669  0.00  0.00    +0.004 A 
ATOM     15  N   UNL     1      -1.666  -0.976  12.813  0.00  0.00    -0.266 N 
ATOM     16  H   UNL     1      -1.962  -0.043  13.135  0.00  0.00    +0.226 HD
ENDBRANCH   6   7
BRANCH   3   2
ATOM      1  O   UNL     1      -7.476  -5.983  10.095  0.00  0.00    -0.389 OA
ATOM      2  C   UNL     1      -6.332  -5.583  10.308  0.00  0.00    +0.197 C 
ATOM     23  N   UNL     1      -5.266  -6.151   9.719  0.00  0.00    -0.280 N 
ATOM     24  H   UNL     1      -4.368  -5.772   9.942  0.00  0.00    +0.185 HD
BRANCH  23  25
ATOM     25  C   UNL     1      -5.300  -7.285   8.772  0.00  0.00    +0.070 C 
ATOM     29  C   UNL     1      -5.851  -6.840   7.412  0.00  0.00    +0.039 C 
ATOM     30  C   UNL     1      -6.170  -8.452   9.241  0.00  0.00    +0.039 C 
BRANCH  25  26
ATOM     26  C   UNL     1      -3.872  -7.808   8.577  0.00  0.00    +0.186 C 
BRANCH  26  27
ATOM     27  O   UNL     1      -3.783  -8.978   7.734  0.00  0.00    -0.393 OA
ATOM     28  H   UNL     1      -2.874  -9.244   7.659  0.00  0.00    +0.209 HD
ENDBRANCH  26  27
ENDBRANCH  25  26
ENDBRANCH  23  25
ENDBRANCH   3   2
TORSDOF 5
