REMARK  Name = 6M8E
REMARK  2 active torsions:
REMARK  status: ('A' for Active; 'I' for Inactive)
REMARK    1  A    between atoms: C6_6  and  O29_17
REMARK    2  A    between atoms: C14_14  and  C11_15
REMARK                            x       y       z     vdW  Elec       q    Type
REMARK                         _______ _______ _______ _____ _____    ______ ____
ROOT
ATOM      1  C   UNL     1       7.308  24.706  22.253  0.00  0.00    -0.130 A 
ATOM      2  C   UNL     1       7.883  24.282  23.449  0.00  0.00    +0.185 A 
ATOM      5  C   UNL     1       7.444  24.858  24.640  0.00  0.00    -0.130 A 
ATOM      6  C   UNL     1       6.455  25.845  24.637  0.00  0.00    +0.185 A 
ATOM      7  O   UNL     1       6.057  26.402  25.831  0.00  0.00    -0.185 OA
ATOM      8  C   UNL     1       5.102  27.392  25.905  0.00  0.00    +0.000 A 
ATOM      9  C   UNL     1       4.517  27.823  24.709  0.00  0.00    +0.000 A 
ATOM     10  O   UNL     1       3.559  28.791  24.728  0.00  0.00    -0.400 OA
ATOM     11  C   UNL     1       4.868  27.285  23.477  0.00  0.00    +0.550 A 
ATOM     12  O   UNL     1       4.309  27.692  22.456  0.00  0.00    -0.550 OA
ATOM     21  C   UNL     1       5.863  26.285  23.445  0.00  0.00    +0.000 A 
ATOM     22  C   UNL     1       6.318  25.696  22.257  0.00  0.00    +0.250 A 
ATOM     23  O   UNL     1       5.751  26.120  21.096  0.00  0.00    -0.650 OA
ENDROOT
BRANCH   8  13
ATOM     13  C   UNL     1       4.847  27.883  27.189  0.00  0.00    +0.000 A 
ATOM     14  C   UNL     1       4.730  29.262  27.433  0.00  0.00    -0.130 A 
ATOM     15  C   UNL     1       4.495  29.744  28.723  0.00  0.00    -0.130 A 
ATOM     16  C   UNL     1       4.394  28.846  29.782  0.00  0.00    +0.250 A 
ATOM     17  O   UNL     1       4.167  29.260  31.063  0.00  0.00    -0.650 OA
ATOM     18  C   UNL     1       4.525  27.472  29.548  0.00  0.00    +0.250 A 
ATOM     19  O   UNL     1       4.419  26.634  30.611  0.00  0.00    -0.650 OA
ATOM     20  C   UNL     1       4.756  26.987  28.262  0.00  0.00    -0.130 A 
ENDBRANCH   8  13
BRANCH   2   3
ATOM      3  O   UNL     1       8.862  23.318  23.463  0.00  0.00    -0.365 OA
ATOM      4  C   UNL     1       9.328  22.395  22.811  0.00  0.00    +0.030 C 
ENDBRANCH   2   3
TORSDOF 2
