REMARK  Name = 5N64
REMARK  3 active torsions:
REMARK  status: ('A' for Active; 'I' for Inactive)
REMARK    1  A    between atoms: C_14  and  N_15
REMARK    2  A    between atoms: N_18  and  C_19
REMARK    3  A    between atoms: C_19  and  C_20
REMARK                            x       y       z     vdW  Elec       q    Type
REMARK                         _______ _______ _______ _____ _____    ______ ____
ROOT
ATOM      1  C   UNL     1     -24.649 -15.498  11.189  0.00  0.00    +0.137 C 
ATOM      2  N   UNL     1     -24.856 -14.844  12.333  0.00  0.00    -0.261 NA
ATOM      9  N   UNL     1     -24.141 -16.739  11.165  0.00  0.00    -0.326 N 
ATOM     10  H   UNL     1     -23.887 -17.232  12.080  0.00  0.00    +0.169 HD
ATOM     11  C   UNL     1     -23.952 -17.362   9.992  0.00  0.00    +0.118 C 
ATOM     12  C   UNL     1     -23.424 -18.644   9.977  0.00  0.00    +0.015 C 
ATOM     13  C   UNL     1     -23.264 -19.309   8.768  0.00  0.00    +0.007 C 
ATOM     14  C   UNL     1     -22.730 -20.592   8.745  0.00  0.00    -0.022 C 
ATOM     15  C   UNL     1     -22.366 -21.209   9.937  0.00  0.00    +0.054 C 
ATOM     16  C   UNL     1     -22.533 -20.546  11.147  0.00  0.00    -0.022 C 
ATOM     17  C   UNL     1     -23.066 -19.263  11.168  0.00  0.00    +0.007 C 
ATOM     18  N   UNL     1     -24.274 -16.773   8.830  0.00  0.00    -0.340 N 
ATOM     19  H   UNL     1     -24.121 -17.299   7.911  0.00  0.00    +0.167 HD
ATOM     20  C   UNL     1     -24.785 -15.535   8.806  0.00  0.00    +0.053 C 
ATOM     21  C   UNL     1     -25.110 -14.941   7.592  0.00  0.00    +0.049 C 
ATOM     22  C   UNL     1     -25.637 -13.656   7.566  0.00  0.00    +0.026 C 
ATOM     23  C   UNL     1     -25.845 -12.971   8.759  0.00  0.00    +0.023 C 
ATOM     24  C   UNL     1     -25.519 -13.567   9.977  0.00  0.00    +0.015 C 
ATOM     28  C   UNL     1     -24.991 -14.855  10.000  0.00  0.00    +0.040 C 
ENDROOT
BRANCH  22  25
ATOM     25  N   UNL     1     -25.943 -13.090   6.399  0.00  0.00    -0.358 NA
ATOM     26  H   UNL     1     -26.349 -12.100   6.375  0.00  0.00    +0.142 HD
ATOM     27  H   UNL     1     -25.783 -13.625   5.486  0.00  0.00    +0.142 HD
ENDBRANCH  22  25
BRANCH   2   3
ATOM      3  C   UNL     1     -24.533 -15.453  13.638  0.00  0.00    +0.186 C 
BRANCH   3   4
ATOM      4  C   UNL     1     -25.800 -15.948  14.355  0.00  0.00    +0.011 A 
ATOM      5  C   UNL     1     -27.021 -16.042  13.821  0.00  0.00    +0.013 A 
ATOM      6  C   UNL     1     -27.947 -16.515  14.681  0.00  0.00    +0.008 A 
ATOM      7  C   UNL     1     -27.486 -16.806  15.904  0.00  0.00    +0.045 A 
ATOM      8  S   UNL     1     -25.859 -16.458  15.899  0.00  0.00    -0.100 S 
ENDBRANCH   3   4
ENDBRANCH   2   3
TORSDOF 3
