REMARK  Name = 4FSN
REMARK  7 active torsions:
REMARK  status: ('A' for Active; 'I' for Inactive)
REMARK    1  A    between atoms: C_1  and  C_5
REMARK    2  A    between atoms: C_2  and  N_8
REMARK    3  A    between atoms: N_8  and  C_9
REMARK    4  A    between atoms: C_9  and  C_10
REMARK    5  A    between atoms: C_19  and  C_22
REMARK    6  A    between atoms: C_25  and  C_28
REMARK    7  A    between atoms: C_28  and  O_29
REMARK                            x       y       z     vdW  Elec       q    Type
REMARK                         _______ _______ _______ _____ _____    ______ ____
ROOT
ATOM      9  C   UNL     1      21.140  -4.940   9.290  0.00  0.00    -0.033 A 
ATOM     10  C   UNL     1      21.035  -3.828   8.463  0.00  0.00    +0.005 A 
ATOM     11  C   UNL     1      19.835  -3.154   8.318  0.00  0.00    +0.010 A 
ATOM     12  C   UNL     1      18.697  -3.585   9.000  0.00  0.00    +0.004 A 
ATOM     13  C   UNL     1      17.322  -3.111   9.031  0.00  0.00    +0.070 A 
ATOM     14  N   UNL     1      16.580  -2.086   8.590  0.00  0.00    -0.276 N 
ATOM     15  H   UNL     1      16.883  -1.293   7.939  0.00  0.00    +0.189 HD
ATOM     16  N   UNL     1      15.357  -2.276   9.153  0.00  0.00    -0.173 NA
ATOM     17  C   UNL     1      15.308  -3.389   9.921  0.00  0.00    +0.097 A 
ATOM     28  C   UNL     1      16.560  -3.964   9.868  0.00  0.00    +0.010 A 
ATOM     29  C   UNL     1      17.439  -5.013  10.409  0.00  0.00    +0.075 C 
ATOM     30  C   UNL     1      18.786  -4.699   9.829  0.00  0.00    -0.034 A 
ATOM     31  C   UNL     1      20.002  -5.358   9.971  0.00  0.00    +0.009 A 
ENDROOT
BRANCH  17  18
ATOM     18  C   UNL     1      14.114  -3.804  10.692  0.00  0.00    +0.002 A 
ATOM     19  C   UNL     1      14.142  -4.960  11.469  0.00  0.00    +0.011 A 
ATOM     20  C   UNL     1      13.044  -5.338  12.221  0.00  0.00    +0.015 A 
ATOM     21  C   UNL     1      11.895  -4.553  12.241  0.00  0.00    +0.059 A 
ATOM     26  C   UNL     1      11.866  -3.392  11.466  0.00  0.00    +0.015 A 
ATOM     27  C   UNL     1      12.952  -3.035  10.686  0.00  0.00    +0.011 A 
BRANCH  21  22
ATOM     22  C   UNL     1      10.709  -4.967  13.048  0.00  0.00    +0.337 C 
ATOM     23  O   UNL     1       9.699  -4.259  13.152  0.00  0.00    -0.245 OA
BRANCH  22  24
ATOM     24  O   UNL     1      10.840  -6.111  13.655  0.00  0.00    -0.477 OA
ATOM     25  H   UNL     1      10.135  -6.194  14.347  0.00  0.00    +0.295 HD
ENDBRANCH  22  24
ENDBRANCH  21  22
ENDBRANCH  17  18
BRANCH   9   8
ATOM      8  C   UNL     1      22.450  -5.672   9.438  0.00  0.00    +0.116 C 
BRANCH   8   6
ATOM      6  N   UNL     1      22.835  -6.358   8.202  0.00  0.00    -0.309 NA
ATOM      7  H   UNL     1      22.955  -5.704   7.435  0.00  0.00    +0.123 HD
BRANCH   6   5
ATOM      1  C   UNL     1      25.196  -7.958   8.963  0.00  0.00    +0.007 C 
ATOM      2  C   UNL     1      24.328  -9.192   8.694  0.00  0.00    -0.014 C 
ATOM      3  C   UNL     1      23.073  -9.229   9.558  0.00  0.00    +0.005 C 
ATOM      4  C   UNL     1      21.839  -8.659   8.856  0.00  0.00    +0.019 C 
ATOM      5  C   UNL     1      22.182  -7.622   7.801  0.00  0.00    +0.054 C 
ATOM     32  C   UNL     1      23.045  -8.238   6.706  0.00  0.00    +0.019 C 
ATOM     33  C   UNL     1      23.962  -9.354   7.223  0.00  0.00    +0.005 C 
ENDBRANCH   6   5
ENDBRANCH   8   6
ENDBRANCH   9   8
TORSDOF 6
