REMARK  Name = 4m12_ligand
REMARK  6 active torsions:
REMARK  status: ('A' for Active; 'I' for Inactive)
REMARK    1  A    between atoms: N1_1  and  C6_13
REMARK    2  A    between atoms: C1_3  and  C5_10
REMARK    3  A    between atoms: C2_4  and  N3_6
REMARK    4  A    between atoms: C14_21  and  O3_23
REMARK    5  A    between atoms: O3_23  and  C16_24
REMARK    6  A    between atoms: C16_24  and  C17_25
REMARK                            x       y       z     vdW  Elec       q    Type
REMARK                         _______ _______ _______ _____ _____    ______ ____
ROOT
ATOM      1  N   UNL     1      -4.852   8.225  13.254  0.00  0.00    -0.172 N 
ATOM     15  C   UNL     1      -3.659   7.773  13.835  0.00  0.00    +0.158 A 
ATOM     16  C   UNL     1      -4.045   6.735  14.691  0.00  0.00    +0.097 A 
ATOM     24  C   UNL     1      -5.470   6.620  14.557  0.00  0.00    +0.135 A 
ATOM     30  N   UNL     1      -5.941   7.545  13.664  0.00  0.00    -0.185 NA
ENDROOT
BRANCH   1   2
ATOM      2  C   UNL     1      -4.962   9.346  12.364  0.00  0.00    +0.114 A 
ATOM      3  C   UNL     1      -5.758  10.469  12.741  0.00  0.00    +0.012 A 
ATOM      4  C   UNL     1      -6.432  10.549  13.983  0.00  0.00    +0.024 A 
ATOM      5  C   UNL     1      -7.133  11.686  14.293  0.00  0.00    +0.091 A 
ATOM      9  C   UNL     1      -7.203  12.792  13.394  0.00  0.00    +0.029 A 
ATOM     10  C   UNL     1      -6.565  12.706  12.194  0.00  0.00    +0.001 A 
ATOM     11  C   UNL     1      -5.829  11.541  11.837  0.00  0.00    -0.028 A 
ATOM     12  C   UNL     1      -5.151  11.470  10.594  0.00  0.00    -0.014 A 
ATOM     13  C   UNL     1      -4.380  10.386  10.280  0.00  0.00    -0.015 A 
ATOM     14  C   UNL     1      -4.278   9.299  11.176  0.00  0.00    +0.025 A 
BRANCH   5   6
ATOM      6  O   UNL     1      -7.798  11.902  15.461  0.00  0.00    -0.319 OA
BRANCH   6   7
ATOM      7  C   UNL     1      -7.810  10.842  16.403  0.00  0.00    +0.190 C 
ATOM      8  C   UNL     1      -8.484  11.418  17.642  0.00  0.00    +0.040 C 
ENDBRANCH   6   7
ENDBRANCH   5   6
ENDBRANCH   1   2
BRANCH  16  17
ATOM     17  N   UNL     1      -3.287   5.933  15.537  0.00  0.00    -0.235 N 
ATOM     18  H   UNL     1      -3.741   5.220  16.072  0.00  0.00    +0.214 HD
ATOM     19  C   UNL     1      -1.899   6.102  15.657  0.00  0.00    +0.276 C 
ATOM     20  O   UNL     1      -1.253   6.887  14.954  0.00  0.00    -0.394 OA
ATOM     21  N   UNL     1      -1.268   5.326  16.621  0.00  0.00    -0.283 N 
ATOM     22  H   UNL     1      -1.802   4.692  17.181  0.00  0.00    +0.181 HD
ATOM     23  H   UNL     1      -0.280   5.401  16.755  0.00  0.00    +0.181 HD
ENDBRANCH  16  17
BRANCH  24  25
ATOM     25  C   UNL     1      -6.331   5.678  15.272  0.00  0.00    +0.205 C 
ATOM     26  O   UNL     1      -5.887   4.934  16.154  0.00  0.00    -0.390 OA
ATOM     27  N   UNL     1      -7.662   5.649  14.937  0.00  0.00    -0.301 N 
ATOM     28  H   UNL     1      -8.012   6.259  14.226  0.00  0.00    +0.180 HD
ATOM     29  H   UNL     1      -8.281   5.018  15.404  0.00  0.00    +0.180 HD
ENDBRANCH  24  25
TORSDOF 5
