REMARK  Name = 5HG5
REMARK  8 active torsions:
REMARK  status: ('A' for Active; 'I' for Inactive)
REMARK    1  A    between atoms: C_5  and  N_21
REMARK    2  A    between atoms: C_6  and  C_23
REMARK    3  A    between atoms: C_8  and  N_29
REMARK    4  A    between atoms: C_12  and  O_16
REMARK    5  A    between atoms: O_16  and  C_17
REMARK    6  A    between atoms: C_22  and  C_23
REMARK    7  A    between atoms: N_25  and  C_26
REMARK    8  A    between atoms: N_32  and  C_35
REMARK                            x       y       z     vdW  Elec       q    Type
REMARK                         _______ _______ _______ _____ _____    ______ ____
ROOT
ATOM      1  C   UNL     1       9.994  -3.927 -33.549  0.00  0.00    +0.083 A 
ATOM      2  C   UNL     1       8.779  -4.639 -33.606  0.00  0.00    +0.036 A 
ATOM      3  C   UNL     1       7.781  -3.708 -33.805  0.00  0.00    +0.114 A 
ATOM      4  N   UNL     1       8.344  -2.458 -33.873  0.00  0.00    -0.235 NA
ATOM      5  C   UNL     1      11.352  -4.223 -33.372  0.00  0.00    +0.234 A 
ATOM     19  N   UNL     1      12.260  -3.194 -33.377  0.00  0.00    -0.178 NA
ATOM     20  C   UNL     1      11.875  -1.898 -33.557  0.00  0.00    +0.225 A 
ATOM     21  N   UNL     1      12.845  -0.877 -33.559  0.00  0.00    -0.283 N 
ATOM     22  H   UNL     1      12.444   0.100 -33.734  0.00  0.00    +0.155 HD
ATOM     36  N   UNL     1      10.570  -1.522 -33.738  0.00  0.00    -0.194 NA
ATOM     37  C   UNL     1       9.693  -2.567 -33.721  0.00  0.00    +0.168 A 
ENDROOT
BRANCH  21  23
ATOM     23  C   UNL     1      14.248  -0.894 -33.374  0.00  0.00    +0.034 A 
ATOM     24  C   UNL     1      14.951   0.338 -33.455  0.00  0.00    +0.025 A 
ATOM     25  C   UNL     1      16.357   0.403 -33.262  0.00  0.00    +0.025 A 
ATOM     26  C   UNL     1      17.142  -0.771 -32.970  0.00  0.00    +0.030 A 
ATOM     34  C   UNL     1      16.421  -2.012 -32.896  0.00  0.00    +0.025 A 
ATOM     35  C   UNL     1      15.014  -2.066 -33.095  0.00  0.00    +0.025 A 
BRANCH  26  27
ATOM     27  N   UNL     1      18.559  -0.644 -32.768  0.00  0.00    -0.328 N 
ATOM     28  C   UNL     1      18.807   0.172 -31.523  0.00  0.00    +0.120 C 
ATOM     29  C   UNL     1      20.287   0.535 -31.398  0.00  0.00    +0.103 C 
ATOM     30  N   UNL     1      21.111  -0.735 -31.407  0.00  0.00    -0.302 NA
ATOM     31  C   UNL     1      22.571  -0.400 -31.278  0.00  0.00    +0.105 C 
ATOM     32  C   UNL     1      20.867  -1.569 -32.653  0.00  0.00    +0.103 C 
ATOM     33  C   UNL     1      19.374  -1.898 -32.763  0.00  0.00    +0.120 C 
ENDBRANCH  26  27
ENDBRANCH  21  23
BRANCH   5   6
ATOM      6  O   UNL     1      11.766  -5.544 -33.193  0.00  0.00    -0.437 OA
BRANCH   6   7
ATOM      7  C   UNL     1      13.069  -5.734 -32.780  0.00  0.00    +0.132 A 
ATOM      8  C   UNL     1      13.310  -5.942 -31.398  0.00  0.00    +0.069 A 
ATOM      9  C   UNL     1      14.632  -6.136 -30.923  0.00  0.00    +0.037 A 
ATOM     16  C   UNL     1      15.717  -6.121 -31.860  0.00  0.00    +0.023 A 
ATOM     17  C   UNL     1      15.469  -5.914 -33.248  0.00  0.00    +0.005 A 
ATOM     18  C   UNL     1      14.145  -5.719 -33.712  0.00  0.00    +0.046 A 
BRANCH   9  10
ATOM     10  N   UNL     1      14.759  -6.331 -29.516  0.00  0.00    -0.285 N 
ATOM     11  H   UNL     1      13.841  -6.328 -28.966  0.00  0.00    +0.155 HD
ATOM     12  C   UNL     1      15.903  -6.523 -28.763  0.00  0.00    +0.217 C 
ATOM     13  O   UNL     1      17.068  -6.360 -29.127  0.00  0.00    -0.276 OA
BRANCH  12  14
ATOM     14  C   UNL     1      15.569  -6.966 -27.349  0.00  0.00    +0.093 C 
ATOM     15  C   UNL     1      16.368  -6.251 -26.271  0.00  0.00    +0.013 C 
ENDBRANCH  12  14
ENDBRANCH   9  10
ENDBRANCH   6   7
ENDBRANCH   5   6
TORSDOF 6
