REMARK  Name = 5I9Z
REMARK  8 active torsions:
REMARK  status: ('A' for Active; 'I' for Inactive)
REMARK    1  A    between atoms: C_6  and  C_7
REMARK    2  A    between atoms: N_17  and  C_24
REMARK    3  A    between atoms: N_20  and  C_23
REMARK    4  A    between atoms: C_25  and  O_26
REMARK    5  A    between atoms: C_25  and  C_32
REMARK    6  A    between atoms: C_27  and  C_32
REMARK    7  A    between atoms: C_32  and  O_35
REMARK    8  A    between atoms: C_34  and  O_35
REMARK                            x       y       z     vdW  Elec       q    Type
REMARK                         _______ _______ _______ _____ _____    ______ ____
ROOT
ATOM      1  N   UNL     1    -102.034 -16.226  47.223  0.00  0.00    -0.134 N 
ATOM      2  C   UNL     1    -102.284 -16.468  48.524  0.00  0.00    +0.383 C 
ATOM     14  C   UNL     1    -103.069 -16.188  46.189  0.00  0.00    +0.346 A 
ATOM     15  C   UNL     1    -102.424 -15.721  45.026  0.00  0.00    +0.137 A 
ATOM     16  C   UNL     1    -101.096 -15.628  45.196  0.00  0.00    +0.111 A 
ATOM     17  C   UNL     1    -100.590 -15.188  44.020  0.00  0.00    +0.161 A 
ATOM     18  N   UNL     1     -99.340 -14.882  43.546  0.00  0.00    -0.264 N 
ATOM     19  H   UNL     1     -99.250 -14.436  42.578  0.00  0.00    +0.157 HD
ATOM     20  C   UNL     1     -98.209 -15.127  44.266  0.00  0.00    +0.249 C 
ATOM     21  O   UNL     1     -98.203 -15.646  45.378  0.00  0.00    -0.270 OA
ATOM     35  N   UNL     1    -101.635 -15.025  43.193  0.00  0.00    -0.157 NA
ATOM     36  N   UNL     1    -102.690 -15.328  43.769  0.00  0.00    -0.269 N 
ATOM     37  H   UNL     1    -103.665 -15.283  43.331  0.00  0.00    +0.189 HD
ATOM     38  C   UNL     1    -100.776 -16.027  46.527  0.00  0.00    +0.332 A 
ENDROOT
BRANCH  20  22
ATOM     22  C   UNL     1     -96.965 -14.747  43.725  0.00  0.00    +0.037 A 
ATOM     23  C   UNL     1     -95.841 -14.870  44.540  0.00  0.00    +0.015 A 
ATOM     24  C   UNL     1     -94.572 -14.514  44.080  0.00  0.00    +0.024 A 
ATOM     25  C   UNL     1     -94.399 -14.019  42.790  0.00  0.00    +0.030 A 
ATOM     33  C   UNL     1     -95.515 -13.902  41.963  0.00  0.00    +0.024 A 
ATOM     34  C   UNL     1     -96.784 -14.266  42.431  0.00  0.00    +0.015 A 
BRANCH  25  26
ATOM     26  N   UNL     1     -93.178 -13.680  42.338  0.00  0.00    -0.328 N 
ATOM     27  C   UNL     1     -93.157 -12.287  41.857  0.00  0.00    +0.120 C 
ATOM     28  C   UNL     1     -91.765 -11.890  41.372  0.00  0.00    +0.103 C 
ATOM     29  N   UNL     1     -90.801 -12.024  42.479  0.00  0.00    -0.302 NA
ATOM     30  C   UNL     1     -89.462 -11.580  42.066  0.00  0.00    +0.105 C 
ATOM     31  C   UNL     1     -90.772 -13.429  42.911  0.00  0.00    +0.103 C 
ATOM     32  C   UNL     1     -92.156 -13.855  43.390  0.00  0.00    +0.120 C 
ENDBRANCH  25  26
ENDBRANCH  20  22
BRANCH   2  12
ATOM     12  O   UNL     1    -103.419 -16.658  48.976  0.00  0.00    -0.460 OA
ATOM     13  H   UNL     1    -104.016 -15.814  48.791  0.00  0.00    +0.298 HD
ENDBRANCH   2  12
BRANCH   2   3
ATOM      3  C   UNL     1    -101.056 -16.486  49.459  0.00  0.00    +0.284 C 
BRANCH   3   6
ATOM      6  C   UNL     1    -100.641 -15.165  49.729  0.00  0.00    -0.005 A 
ATOM      7  C   UNL     1    -101.567 -14.193  50.116  0.00  0.00    +0.007 A 
ATOM      8  C   UNL     1    -101.150 -12.881  50.376  0.00  0.00    +0.000 A 
ATOM      9  C   UNL     1     -99.807 -12.528  50.249  0.00  0.00    +0.000 A 
ATOM     10  C   UNL     1     -98.886 -13.492  49.856  0.00  0.00    +0.000 A 
ATOM     11  C   UNL     1     -99.300 -14.799  49.605  0.00  0.00    +0.007 A 
ENDBRANCH   3   6
BRANCH   3   4
ATOM      4  O   UNL     1    -101.459 -17.157  50.666  0.00  0.00    -0.361 OA
ATOM      5  C   UNL     1    -100.375 -17.335  51.597  0.00  0.00    +0.195 C 
ENDBRANCH   3   4
ENDBRANCH   2   3
TORSDOF 6
