REMARK  Name = A5ID
REMARK  0 active torsions:
REMARK  status: ('A' for Active; 'I' for Inactive)
REMARK                            x       y       z     vdW  Elec       q    Type
REMARK                         _______ _______ _______ _____ _____    ______ ____
ROOT
ATOM      1  N   UNL     1      65.616  28.647  12.863  0.00  0.00    -0.034 NA
ATOM      2  C   UNL     1      66.153  27.660  13.652  0.00  0.00    +0.372 C 
ATOM      3  N   UNL     1      65.792  27.362  14.908  0.00  0.00    +0.016 NA
ATOM      4  C   UNL     1      66.491  26.350  15.425  0.00  0.00    +0.472 C 
ATOM      5  N   UNL     1      67.472  25.642  14.865  0.00  0.00    +0.018 NA
ATOM      6  C   UNL     1      67.844  25.953  13.603  0.00  0.00    +0.411 C 
ATOM      7  N   UNL     1      68.858  25.280  13.061  0.00  0.00    +0.212 NA
ATOM      8  C   UNL     1      67.165  26.999  12.930  0.00  0.00    +0.251 C 
ATOM      9  C   UNL     1      67.205  27.637  11.660  0.00  0.00    +0.049 C 
ATOM     10  C   UNL     1      66.267  28.630  11.650  0.00  0.00    +0.232 C 
ENDROOT
TORSDOF 0
