REMARK  Name = 6I5I
REMARK  4 active torsions:
REMARK  status: ('A' for Active; 'I' for Inactive)
REMARK    1  A    between atoms: C4_1  and  C2_20
REMARK    2  A    between atoms: C9_8  and  C11_10
REMARK    3  A    between atoms: N3_12  and  C13_13
REMARK    4  A    between atoms: C13_13  and  C14_14
REMARK                            x       y       z     vdW  Elec       q    Type
REMARK                         _______ _______ _______ _____ _____    ______ ____
ROOT
ATOM      1  C   UNL     1      20.579  42.813  10.767  0.00  0.00    +0.100 A 
ATOM      8  N   UNL     1      19.901  43.971  10.681  0.00  0.00    -0.450 NA
ATOM      9  C   UNL     1      19.548  44.385   9.461  0.00  0.00    +0.350 A 
ATOM     10  C   UNL     1      18.740  45.506   9.092  0.00  0.00    +0.050 A 
ATOM     23  C   UNL     1      18.686  45.430   7.740  0.00  0.00    -0.150 A 
ATOM     24  O   UNL     1      19.361  44.362   7.211  0.00  0.00    +0.000 OA
ATOM     25  C   UNL     1      19.864  43.693   8.289  0.00  0.00    +0.000 A 
ATOM     26  C   UNL     1      20.554  42.499   8.392  0.00  0.00    -0.130 A 
ATOM     27  C   UNL     1      20.925  42.053   9.652  0.00  0.00    -0.130 A 
ENDROOT
BRANCH   1   2
ATOM      2  C   UNL     1      20.917  42.393  12.134  0.00  0.00    +0.100 A 
ATOM      3  C   UNL     1      20.458  42.963  13.286  0.00  0.00    -0.050 A 
ATOM      4  N   UNL     1      20.949  42.241  14.300  0.00  0.00    -0.150 N 
ATOM      5  C   UNL     1      20.708  42.442  15.717  0.00  0.00    -0.100 C 
ATOM      6  N   UNL     1      21.735  41.218  13.882  0.00  0.00    -0.100 NA
ATOM      7  C   UNL     1      21.704  41.311  12.572  0.00  0.00    -0.050 A 
ENDBRANCH   1   2
BRANCH  10  11
ATOM     11  C   UNL     1      18.161  46.467  10.022  0.00  0.00    +0.100 A 
ATOM     12  C   UNL     1      18.591  46.708  11.309  0.00  0.00    -0.050 A 
ATOM     13  N   UNL     1      17.705  47.541  11.867  0.00  0.00    -0.150 N 
ATOM     21  N   UNL     1      16.685  47.856  11.029  0.00  0.00    -0.100 NA
ATOM     22  C   UNL     1      16.969  47.216   9.913  0.00  0.00    -0.050 A 
BRANCH  13  14
ATOM     14  C   UNL     1      17.761  48.107  13.212  0.00  0.00    -0.050 C 
BRANCH  14  15
ATOM     15  C   UNL     1      18.002  47.071  14.287  0.00  0.00    +0.000 A 
ATOM     16  C   UNL     1      18.835  47.353  15.355  0.00  0.00    -0.130 A 
ATOM     17  C   UNL     1      18.947  46.468  16.422  0.00  0.00    -0.130 A 
ATOM     18  C   UNL     1      18.260  45.281  16.409  0.00  0.00    -0.130 A 
ATOM     19  C   UNL     1      17.481  44.960  15.324  0.00  0.00    -0.130 A 
ATOM     20  C   UNL     1      17.334  45.854  14.281  0.00  0.00    -0.130 A 
ENDBRANCH  14  15
ENDBRANCH  13  14
ENDBRANCH  10  11
TORSDOF 4
