REMARK  Name = 4urk_ligand
REMARK  7 active torsions:
REMARK  status: ('A' for Active; 'I' for Inactive)
REMARK    1  A    between atoms: C1_1  and  C20_20
REMARK    2  A    between atoms: C6_6  and  N10_10
REMARK    3  A    between atoms: C16_16  and  C18_18
REMARK    4  A    between atoms: C18_18  and  C19_19
REMARK    5  A    between atoms: C18_18  and  N21_21
REMARK    6  A    between atoms: N21_21  and  C22_22
REMARK    7  A    between atoms: C24_24  and  C28_28
REMARK                            x       y       z     vdW  Elec       q    Type
REMARK                         _______ _______ _______ _____ _____    ______ ____
ROOT
ATOM      1  C   UNL     1      41.533  16.321  33.558  0.00  0.00    -0.005 A 
ATOM      2  C   UNL     1      40.522  17.020  34.386  0.00  0.00    +0.074 C 
ATOM      3  C   UNL     1      42.873  16.826  33.590  0.00  0.00    +0.020 A 
ATOM      4  C   UNL     1      43.869  16.276  32.882  0.00  0.00    +0.043 A 
ATOM     18  C   UNL     1      43.504  15.083  32.051  0.00  0.00    +0.172 A 
ATOM     19  N   UNL     1      44.422  14.499  31.356  0.00  0.00    -0.311 NA
ATOM     20  C   UNL     1      44.130  13.411  30.585  0.00  0.00    +0.054 A 
ATOM     27  C   UNL     1      42.889  12.909  30.512  0.00  0.00    +0.006 A 
ATOM     28  C   UNL     1      41.806  13.536  31.291  0.00  0.00    +0.212 A 
ATOM     29  O   UNL     1      40.687  13.044  31.211  0.00  0.00    -0.417 OA
ATOM     30  N   UNL     1      42.182  14.635  32.050  0.00  0.00    -0.146 N 
ATOM     31  C   UNL     1      41.228  15.261  32.810  0.00  0.00    +0.224 A 
ENDROOT
BRANCH  20  21
ATOM     21  N   UNL     1      45.157  12.840  29.869  0.00  0.00    -0.296 N 
ATOM     22  C   UNL     1      46.440  13.535  29.924  0.00  0.00    +0.163 C 
ATOM     23  C   UNL     1      47.548  12.616  29.487  0.00  0.00    +0.184 C 
ATOM     24  O   UNL     1      47.230  12.169  28.176  0.00  0.00    -0.376 OA
ATOM     25  C   UNL     1      46.075  11.338  28.223  0.00  0.00    +0.184 C 
ATOM     26  C   UNL     1      44.876  12.165  28.611  0.00  0.00    +0.163 C 
ENDBRANCH  20  21
BRANCH   4   5
ATOM      5  C   UNL     1      45.298  16.756  32.905  0.00  0.00    +0.140 C 
ATOM     17  C   UNL     1      45.656  17.477  31.632  0.00  0.00    +0.048 C 
BRANCH   5   6
ATOM      6  N   UNL     1      45.526  17.705  33.981  0.00  0.00    -0.307 N 
ATOM      7  H   UNL     1      45.221  18.687  33.922  0.00  0.00    +0.180 HD
BRANCH   6   8
ATOM      8  C   UNL     1      46.194  17.189  35.114  0.00  0.00    +0.055 A 
ATOM      9  C   UNL     1      45.850  15.967  35.671  0.00  0.00    +0.012 A 
ATOM     10  C   UNL     1      46.488  15.479  36.791  0.00  0.00    -0.011 A 
ATOM     11  C   UNL     1      47.480  16.225  37.389  0.00  0.00    -0.020 A 
ATOM     12  C   UNL     1      47.834  17.451  36.869  0.00  0.00    +0.002 A 
ATOM     13  C   UNL     1      47.186  17.928  35.748  0.00  0.00    +0.028 A 
BRANCH  13  14
ATOM     14  C   UNL     1      47.627  19.243  35.241  0.00  0.00    +0.056 C 
ATOM     15  O   UNL     1      48.790  19.518  34.969  0.00  0.00    -0.565 OA
ATOM     16  O   UNL     1      46.543  20.060  35.151  0.00  0.00    -0.565 OA
ENDBRANCH  13  14
ENDBRANCH   6   8
ENDBRANCH   5   6
ENDBRANCH   4   5
TORSDOF 5
