REMARK  Name = B4V
REMARK  4 active torsions:
REMARK  status: ('A' for Active; 'I' for Inactive)
REMARK    1  A    between atoms: C7_6  and  C14_13
REMARK    2  A    between atoms: C11_10  and  C13_12
REMARK    3  A    between atoms: C14_13  and  N22_17
REMARK    4  A    between atoms: C20_16  and  C21_23
REMARK                            x       y       z     vdW  Elec       q    Type
REMARK                         _______ _______ _______ _____ _____    ______ ____
ROOT
ATOM     11  C   UNL     1     -13.251  -6.822  40.810  0.00  0.00    +0.055 A 
ATOM     12  C   UNL     1     -13.526  -5.784  41.713  0.00  0.00    +0.002 A 
ATOM     13  C   UNL     1     -12.619  -4.761  41.885  0.00  0.00    -0.000 A 
ATOM     30  C   UNL     1     -11.398  -4.802  41.207  0.00  0.00    -0.003 A 
ATOM     31  C   UNL     1     -11.104  -5.832  40.315  0.00  0.00    -0.000 A 
ATOM     32  C   UNL     1     -12.023  -6.854  40.118  0.00  0.00    +0.005 A 
ENDROOT
BRANCH  11  10
ATOM      1  C   UNL     1     -18.207 -10.349  41.077  0.00  0.00    +0.040 A 
ATOM      2  C   UNL     1     -18.740  -9.132  41.315  0.00  0.00    +0.066 A 
ATOM      3  C   UNL     1     -20.222  -8.932  41.635  0.00  0.00    +0.063 C 
ATOM      4  C   UNL     1     -21.004 -10.268  41.667  0.00  0.00    +0.079 C 
ATOM      5  N   UNL     1     -20.221 -11.510  41.891  0.00  0.00    -0.267 NA
ATOM      6  C   UNL     1     -19.934 -11.764  43.323  0.00  0.00    +0.090 C 
ATOM      7  N   UNL     1     -17.837  -8.164  41.262  0.00  0.00    -0.227 NA
ATOM      8  C   UNL     1     -16.613  -8.490  40.961  0.00  0.00    +0.186 A 
ATOM      9  N   UNL     1     -15.547  -7.599  40.930  0.00  0.00    -0.150 NA
ATOM     10  C   UNL     1     -14.243  -7.905  40.697  0.00  0.00    +0.271 C 
ATOM     33  O   UNL     1     -13.863  -9.030  40.441  0.00  0.00    -0.268 OA
ATOM     34  C   UNL     1     -18.983 -11.642  41.087  0.00  0.00    +0.107 C 
ATOM     35  S   UNL     1     -16.493 -10.178  40.771  0.00  0.00    -0.053 S 
ENDBRANCH  11  10
BRANCH  13  14
ATOM     14  C   UNL     1     -12.959  -3.667  42.867  0.00  0.00    +0.142 C 
BRANCH  14  15
ATOM     15  N   UNL     1     -12.747  -2.333  42.291  0.00  0.00    -0.195 NA
ATOM     16  C   UNL     1     -11.664  -1.567  42.576  0.00  0.00    +0.286 C 
ATOM     17  O   UNL     1     -10.791  -1.960  43.339  0.00  0.00    -0.267 OA
BRANCH  16  18
ATOM     18  C   UNL     1     -11.575  -0.240  41.916  0.00  0.00    +0.173 A 
ATOM     19  C   UNL     1     -10.531   0.667  41.910  0.00  0.00    +0.088 A 
ATOM     20  C   UNL     1      -9.197   0.519  42.621  0.00  0.00    +0.054 C 
ATOM     21  N   UNL     1     -10.938   1.715  41.128  0.00  0.00    -0.191 N 
ATOM     22  C   UNL     1     -10.270   2.924  40.817  0.00  0.00    +0.244 A 
ATOM     23  N   UNL     1      -9.203   3.390  41.407  0.00  0.00    -0.027 NA
ATOM     24  O   UNL     1      -8.884   4.644  40.836  0.00  0.00    -0.239 OA
ATOM     25  N   UNL     1      -9.874   4.931  39.870  0.00  0.00    -0.028 NA
ATOM     26  C   UNL     1     -10.719   3.940  39.848  0.00  0.00    +0.249 A 
ATOM     27  N   UNL     1     -11.825   3.875  39.005  0.00  0.00    -0.100 NA
ATOM     28  N   UNL     1     -12.236   1.399  40.692  0.00  0.00    -0.058 NA
ATOM     29  N   UNL     1     -12.571   0.251  41.158  0.00  0.00    -0.124 NA
ENDBRANCH  16  18
ENDBRANCH  14  15
ENDBRANCH  13  14
TORSDOF 4
