REMARK  Name = 1P62
REMARK  6 active torsions:
REMARK  status: ('A' for Active; 'I' for Inactive)
REMARK    1  A    between atoms: O_1  and  C_2
REMARK    2  A    between atoms: C_2  and  C_3
REMARK    3  A    between atoms: C_5  and  N_6
REMARK    4  A    between atoms: C_9  and  N_13
REMARK    5  A    between atoms: C_11  and  O_12
REMARK    6  A    between atoms: C_17  and  O_18
REMARK                            x       y       z     vdW  Elec       q    Type
REMARK                         _______ _______ _______ _____ _____    ______ ____
ROOT
ATOM      4  C   UNL     1      70.467  35.860  21.371  0.00  0.00    +0.180 C 
ATOM      5  C   UNL     1      71.368  35.602  20.169  0.00  0.00    +0.219 C 
ATOM      8  C   UNL     1      70.386  35.084  19.098  0.00  0.00    +0.319 C 
ATOM      9  F   UNL     1      70.869  34.206  18.263  0.00  0.00    -0.198 F 
ATOM     10  F   UNL     1      69.943  36.062  18.337  0.00  0.00    -0.198 F 
ATOM     11  C   UNL     1      69.210  34.473  19.901  0.00  0.00    +0.284 C 
ATOM     23  O   UNL     1      69.149  35.328  21.046  0.00  0.00    -0.344 OA
ENDROOT
BRANCH  11  12
ATOM     12  N   UNL     1      67.922  34.422  19.161  0.00  0.00    -0.228 N 
ATOM     13  C   UNL     1      67.498  33.222  18.696  0.00  0.00    +0.403 C 
ATOM     16  N   UNL     1      66.250  33.126  18.194  0.00  0.00    +0.012 NA
ATOM     17  C   UNL     1      65.456  34.201  18.160  0.00  0.00    +0.313 C 
ATOM     21  C   UNL     1      65.911  35.351  18.582  0.00  0.00    +0.091 C 
ATOM     22  C   UNL     1      67.146  35.472  18.997  0.00  0.00    +0.149 C 
BRANCH  17  18
ATOM     18  N   UNL     1      64.225  34.032  17.639  0.00  0.00    -0.247 N 
ATOM     19  H   UNL     1      63.911  33.063  17.311  0.00  0.00    +0.288 HD
ATOM     20  H   UNL     1      63.561  34.867  17.553  0.00  0.00    +0.288 HD
ENDBRANCH  17  18
BRANCH  13  14
ATOM     14  O   UNL     1      68.273  32.128  18.727  0.00  0.00    -0.463 OA
ATOM     15  H   UNL     1      69.144  32.299  18.166  0.00  0.00    +0.297 HD
ENDBRANCH  13  14
ENDBRANCH  11  12
BRANCH   5   6
ATOM      6  O   UNL     1      72.407  34.586  20.411  0.00  0.00    -0.383 OA
ATOM      7  H   UNL     1      73.024  34.897  21.201  0.00  0.00    +0.210 HD
ENDBRANCH   5   6
BRANCH   4   3
ATOM      3  C   UNL     1      70.268  37.346  21.792  0.00  0.00    +0.190 C 
BRANCH   3   1
ATOM      1  O   UNL     1      69.971  38.095  20.611  0.00  0.00    -0.392 OA
ATOM      2  H   UNL     1      70.768  38.011  19.933  0.00  0.00    +0.209 HD
ENDBRANCH   3   1
ENDBRANCH   4   3
TORSDOF 6
