REMARK  Name = 3FKO
REMARK  3 active torsions:
REMARK  status: ('A' for Active; 'I' for Inactive)
REMARK    1  A    between atoms: C_7  and  O_8
REMARK    2  A    between atoms: O_8  and  C_9
REMARK    3  A    between atoms: C_17  and  C_18
REMARK                            x       y       z     vdW  Elec       q    Type
REMARK                         _______ _______ _______ _____ _____    ______ ____
ROOT
ATOM      5  C   UNL     1      42.830  55.135  92.943  0.00  0.00    +0.131 A 
ATOM      6  C   UNL     1      44.099  55.538  93.388  0.00  0.00    +0.047 A 
ATOM      7  C   UNL     1      45.190  54.654  93.360  0.00  0.00    +0.016 A 
ATOM      8  C   UNL     1      44.994  53.356  92.882  0.00  0.00    +0.028 A 
ATOM      9  C   UNL     1      45.874  52.278  92.740  0.00  0.00    +0.102 A 
ATOM     17  N   UNL     1      45.149  51.259  92.229  0.00  0.00    -0.173 NA
ATOM     18  N   UNL     1      43.826  51.675  92.045  0.00  0.00    -0.276 N 
ATOM     19  H   UNL     1      43.028  51.078  91.657  0.00  0.00    +0.189 HD
ATOM     20  C   UNL     1      43.733  52.955  92.441  0.00  0.00    +0.070 A 
ATOM     21  C   UNL     1      42.659  53.837  92.465  0.00  0.00    +0.074 A 
ENDROOT
BRANCH   9  10
ATOM     10  C   UNL     1      47.238  52.178  93.056  0.00  0.00    +0.021 A 
ATOM     11  C   UNL     1      47.628  51.302  94.073  0.00  0.00    +0.011 A 
ATOM     12  C   UNL     1      48.972  51.158  94.424  0.00  0.00    +0.001 A 
ATOM     13  C   UNL     1      49.941  51.899  93.751  0.00  0.00    +0.002 A 
ATOM     14  C   UNL     1      49.558  52.774  92.735  0.00  0.00    +0.021 A 
ATOM     15  C   UNL     1      48.215  52.906  92.386  0.00  0.00    +0.050 A 
ATOM     16 CL   UNL     1      47.767  54.046  91.081  0.00  0.00    -0.083 Cl
ENDBRANCH   9  10
BRANCH   5   4
ATOM      4  O   UNL     1      41.765  56.013  92.972  0.00  0.00    -0.453 OA
BRANCH   4   3
ATOM      1  F   UNL     1      40.363  54.547  94.907  0.00  0.00    -0.202 F 
ATOM      2  C   UNL     1      39.753  54.905  93.766  0.00  0.00    +0.165 A 
ATOM      3  C   UNL     1      40.445  55.631  92.791  0.00  0.00    +0.163 A 
ATOM     22  C   UNL     1      39.779  55.987  91.617  0.00  0.00    +0.049 A 
ATOM     23  C   UNL     1      38.447  55.612  91.413  0.00  0.00    +0.004 A 
ATOM     24  C   UNL     1      37.764  54.883  92.388  0.00  0.00    +0.003 A 
ATOM     25  C   UNL     1      38.421  54.528  93.566  0.00  0.00    +0.042 A 
ENDBRANCH   4   3
ENDBRANCH   5   4
TORSDOF 3
