REMARK  Name = 6QHR
REMARK  3 active torsions:
REMARK  status: ('A' for Active; 'I' for Inactive)
REMARK    1  A    between atoms: C11_1  and  C12_12
REMARK    2  A    between atoms: C4_17  and  C5_18
REMARK    3  A    between atoms: C6_19  and  N2_24
REMARK                            x       y       z     vdW  Elec       q    Type
REMARK                         _______ _______ _______ _____ _____    ______ ____
ROOT
ATOM      7  N   UNL     1     -25.914  -9.744   5.381  0.00  0.00    -0.250 N 
ATOM      8  N   UNL     1     -26.702  -9.153   6.385  0.00  0.00    -0.100 NA
ATOM      9  C   UNL     1     -26.575  -7.804   6.325  0.00  0.00    +0.100 A 
ATOM     19  C   UNL     1     -25.639  -7.524   5.193  0.00  0.00    +0.000 A 
ATOM     20  C   UNL     1     -25.029  -6.341   4.534  0.00  0.00    +0.430 A 
ATOM     21  N   UNL     1     -25.289  -5.082   4.941  0.00  0.00    -0.550 NA
ATOM     22  N   UNL     1     -24.200  -6.550   3.489  0.00  0.00    -0.760 NA
ATOM     23  C   UNL     1     -23.917  -7.784   3.045  0.00  0.00    +0.630 A 
ATOM     24  N   UNL     1     -24.423  -8.902   3.590  0.00  0.00    -0.730 NA
ATOM     25  C   UNL     1     -25.271  -8.841   4.641  0.00  0.00    +0.550 A 
ENDROOT
BRANCH   9  10
ATOM     10  C   UNL     1     -27.270  -6.866   7.256  0.00  0.00    +0.000 A 
ATOM     11  C   UNL     1     -28.260  -5.997   6.793  0.00  0.00    -0.130 A 
ATOM     12  C   UNL     1     -28.881  -5.169   7.724  0.00  0.00    +0.050 A 
ATOM     13  C   UNL     1     -29.903  -4.185   7.550  0.00  0.00    -0.150 A 
ATOM     14  C   UNL     1     -30.091  -3.706   8.842  0.00  0.00    +0.000 A 
ATOM     15  N   UNL     1     -29.267  -4.327   9.747  0.00  0.00    -0.300 NA
ATOM     16  C   UNL     1     -28.487  -5.246   9.139  0.00  0.00    +0.550 A 
ATOM     17  N   UNL     1     -27.522  -6.115   9.529  0.00  0.00    -0.730 NA
ATOM     18  C   UNL     1     -26.939  -6.908   8.615  0.00  0.00    +0.250 A 
ENDBRANCH   9  10
BRANCH   7   6
ATOM      1  C   UNL     1     -24.648 -14.183   6.027  0.00  0.00    +0.600 C 
ATOM      2  N   UNL     1     -25.560 -13.280   6.396  0.00  0.00    -0.250 N 
ATOM      3  C   UNL     1     -26.937 -13.658   6.648  0.00  0.00    +0.000 C 
ATOM      4  C   UNL     1     -27.653 -13.136   5.413  0.00  0.00    -0.100 C 
ATOM      5  C   UNL     1     -27.452 -11.630   5.282  0.00  0.00    -0.100 C 
ATOM      6  C   UNL     1     -25.979 -11.228   5.332  0.00  0.00    +0.000 C 
ATOM     26  C   UNL     1     -25.306 -11.850   6.553  0.00  0.00    +0.000 C 
ATOM     29  O   UNL     1     -24.925 -15.134   5.316  0.00  0.00    -0.550 OA
BRANCH   1  27
ATOM     27  C   UNL     1     -23.232 -14.020   6.523  0.00  0.00    -0.100 C 
ATOM     28  C   UNL     1     -22.589 -15.395   6.578  0.00  0.00    -0.100 C 
ENDBRANCH   1  27
ENDBRANCH   7   6
TORSDOF 3
