REMARK  Name = VX6
REMARK  4 active torsions:
REMARK  status: ('A' for Active; 'I' for Inactive)
REMARK    1  A    between atoms: C12_12  and  S23_21
REMARK    2  A    between atoms: S23_21  and  C24_22
REMARK    3  A    between atoms: C27_25  and  N30_28
REMARK    4  A    between atoms: C31_29  and  C33_31
REMARK                            x       y       z     vdW  Elec       q    Type
REMARK                         _______ _______ _______ _____ _____    ______ ____
ROOT
ATOM      1  N   UNL     1      -7.473  -4.605  -0.377  0.00  0.00    -0.265 NA
ATOM      2  C   UNL     1      -7.843  -3.955   0.886  0.00  0.00    +0.124 C 
ATOM      3  C   UNL     1      -8.974  -2.986   0.684  0.00  0.00    +0.219 C 
ATOM      4  N   UNL     1     -10.091  -3.661   0.004  0.00  0.00    -0.191 N 
ATOM      5  C   UNL     1     -11.278  -2.901  -0.019  0.00  0.00    +0.315 C 
ATOM      6  N   UNL     1     -11.487  -1.971   0.895  0.00  0.00    -0.004 NA
ATOM      7  C   UNL     1     -12.582  -1.243   0.953  0.00  0.00    +0.360 C 
ATOM     21  N   UNL     1     -13.564  -1.438   0.076  0.00  0.00    -0.317 NA
ATOM     22  C   UNL     1     -13.435  -2.376  -0.859  0.00  0.00    +0.308 C 
ATOM     23  N   UNL     1     -14.376  -2.625  -1.773  0.00  0.00    +0.022 NA
ATOM     24  C   UNL     1     -15.639  -2.203  -1.700  0.00  0.00    +0.377 C 
ATOM     25  C   UNL     1     -16.341  -1.400  -0.836  0.00  0.00    +0.169 C 
ATOM     26  C   UNL     1     -17.592  -1.412  -1.377  0.00  0.00    +0.096 C 
ATOM     27  C   UNL     1     -18.617  -0.617  -0.644  0.00  0.00    +0.052 C 
ATOM     28  N   UNL     1     -17.643  -2.152  -2.470  0.00  0.00    -0.043 NA
ATOM     29  N   UNL     1     -16.386  -2.661  -2.671  0.00  0.00    +0.079 NA
ATOM     30  C   UNL     1     -12.292  -3.124  -0.919  0.00  0.00    +0.223 C 
ATOM     31  C   UNL     1      -9.642  -4.086  -1.321  0.00  0.00    +0.219 C 
ATOM     32  C   UNL     1      -6.568  -5.701  -0.027  0.00  0.00    +0.090 C 
ATOM     33  C   UNL     1      -8.615  -5.167  -1.115  0.00  0.00    +0.124 C 
ENDROOT
BRANCH   7   8
ATOM      8  S   UNL     1     -12.635  -0.099   2.177  0.00  0.00    -0.007 S 
BRANCH   8   9
ATOM      9  C   UNL     1     -13.991   0.777   1.777  0.00  0.00    +0.035 A 
ATOM     10  C   UNL     1     -15.146   0.773   2.515  0.00  0.00    +0.008 A 
ATOM     11  C   UNL     1     -16.226   1.532   2.116  0.00  0.00    +0.017 A 
ATOM     12  C   UNL     1     -16.128   2.293   0.980  0.00  0.00    +0.073 A 
ATOM     19  C   UNL     1     -14.972   2.282   0.266  0.00  0.00    +0.017 A 
ATOM     20  C   UNL     1     -13.906   1.536   0.656  0.00  0.00    +0.008 A 
BRANCH  12  13
ATOM     13  N   UNL     1     -17.106   3.069   0.503  0.00  0.00    -0.179 NA
ATOM     14  C   UNL     1     -18.064   3.600   1.222  0.00  0.00    +0.245 C 
ATOM     15  O   UNL     1     -18.127   3.439   2.395  0.00  0.00    -0.273 OA
BRANCH  14  16
ATOM     16  C   UNL     1     -19.114   4.406   0.524  0.00  0.00    +0.079 C 
ATOM     17  C   UNL     1     -19.316   5.755   1.191  0.00  0.00    +0.010 C 
ATOM     18  C   UNL     1     -18.468   5.641  -0.048  0.00  0.00    +0.010 C 
ENDBRANCH  14  16
ENDBRANCH  12  13
ENDBRANCH   8   9
ENDBRANCH   7   8
TORSDOF 4
