REMARK  Name = 2h96_ligand
REMARK  11 active torsions:
REMARK  status: ('A' for Active; 'I' for Inactive)
REMARK    1  A    between atoms: C2_2  and  O27_18
REMARK    2  A    between atoms: C3_3  and  C9_7
REMARK    3  A    between atoms: C5_5  and  O22_16
REMARK    4  A    between atoms: C9_7  and  N1_8
REMARK    5  A    between atoms: C8_9  and  C14_10
REMARK    6  A    between atoms: C17_12  and  O36_22
REMARK    7  A    between atoms: C18_13  and  C34_20
REMARK    8  A    between atoms: O22_16  and  C23_17
REMARK    9  A    between atoms: O27_18  and  C28_19
REMARK   10  A    between atoms: O36_22  and  C37_23
REMARK   11  A    between atoms: C37_23  and  C7_24
REMARK                            x       y       z     vdW  Elec       q    Type
REMARK                         _______ _______ _______ _____ _____    ______ ____
ROOT
ATOM      9  N   UNL     1      17.821 106.671  52.782  0.00  0.00    -0.274 N 
ATOM     10  H   UNL     1      18.808 106.562  52.659  0.00  0.00    +0.187 HD
ATOM     11  C   UNL     1      17.008 106.505  51.715  0.00  0.00    +0.228 C 
ATOM     12  O   UNL     1      15.781 106.624  51.795  0.00  0.00    -0.376 OA
ENDROOT
BRANCH  11  13
ATOM     13  C   UNL     1      17.715 106.170  50.461  0.00  0.00    +0.119 A 
ATOM     14  C   UNL     1      16.942 105.977  49.294  0.00  0.00    +0.054 A 
ATOM     15  C   UNL     1      17.607 105.654  48.101  0.00  0.00    +0.070 A 
ATOM     16  C   UNL     1      19.012 105.530  48.095  0.00  0.00    +0.156 A 
ATOM     19  C   UNL     1      19.728 105.735  49.291  0.00  0.00    +0.207 A 
ATOM     23  N   UNL     1      19.079 106.051  50.456  0.00  0.00    -0.241 NA
BRANCH  16  17
ATOM     17  C   UNL     1      19.681 105.199  46.879  0.00  0.00    +0.104 C 
ATOM     18  N   UNL     1      20.190 104.943  45.875  0.00  0.00    -0.332 NA
ENDBRANCH  16  17
BRANCH  19  20
ATOM     20  O   UNL     1      21.128 105.614  49.301  0.00  0.00    -0.289 OA
BRANCH  20  21
ATOM     21  C   UNL     1      21.777 105.914  50.527  0.00  0.00    +0.199 C 
ATOM     22  C   UNL     1      22.022 104.600  51.278  0.00  0.00    +0.041 C 
ENDBRANCH  20  21
ENDBRANCH  19  20
ENDBRANCH  11  13
BRANCH   9   8
ATOM      8  C   UNL     1      17.307 107.004  54.109  0.00  0.00    +0.192 C 
BRANCH   8   7
ATOM      1  C   UNL     1      20.093 109.277  55.836  0.00  0.00    +0.002 A 
ATOM      2  C   UNL     1      19.351 110.474  55.853  0.00  0.00    -0.003 A 
ATOM      3  C   UNL     1      18.026 110.535  55.334  0.00  0.00    +0.073 A 
ATOM      6  C   UNL     1      17.407 109.392  54.783  0.00  0.00    +0.007 A 
ATOM      7  C   UNL     1      18.047 108.148  54.712  0.00  0.00    +0.000 A 
ATOM     24  C   UNL     1      19.482 107.987  55.250  0.00  0.00    +0.083 A 
BRANCH   3   4
ATOM      4  O   UNL     1      17.269 111.706  55.340  0.00  0.00    -0.330 OA
ATOM      5  C   UNL     1      17.538 112.601  54.262  0.00  0.00    +0.229 C 
ENDBRANCH   3   4
BRANCH  24  25
ATOM     25  O   UNL     1      20.127 106.749  55.185  0.00  0.00    -0.332 OA
ATOM     26  C   UNL     1      21.178 106.643  54.253  0.00  0.00    +0.226 C 
ENDBRANCH  24  25
ENDBRANCH   8   7
ENDBRANCH   9   8
TORSDOF 8
