REMARK  Name = 1KIM
REMARK  5 active torsions:
REMARK  status: ('A' for Active; 'I' for Inactive)
REMARK    1  A    between atoms: O5*_1  and  C5*_2
REMARK    2  A    between atoms: C5*_2  and  C4*_3
REMARK    3  A    between atoms: C3*_5  and  O3*_6
REMARK    4  A    between atoms: C1*_8  and  N1_9
REMARK    5  A    between atoms: C5_15  and  C5M_16
REMARK                            x       y       z     vdW  Elec       q    Type
REMARK                         _______ _______ _______ _____ _____    ______ ____
ROOT
ATOM      4  C4*   T A   1      50.210  83.873  53.978  0.00  0.00    +0.175 C 
ATOM      5  C3*   T A   1      50.097  83.500  55.434  0.00  0.00    +0.150 C 
ATOM      6  C2*   T A   1      48.647  83.062  55.566  0.00  0.00    +0.088 C 
ATOM      7  C1*   T A   1      47.884  84.112  54.851  0.00  0.00    +0.226 C 
ATOM     20  O4*   T A   1      48.869  84.315  53.785  0.00  0.00    -0.348 OA
ENDROOT
BRANCH   7   8
ATOM      8  N1    T A   1      46.595  83.790  54.213  0.00  0.00    -0.274 N 
ATOM      9  C6    T A   1      46.556  82.790  53.305  0.00  0.00    +0.102 C 
ATOM     10  C5    T A   1      45.465  82.434  52.615  0.00  0.00    +0.030 C 
ATOM     11  C5M   T A   1      45.560  81.277  51.642  0.00  0.00    +0.051 C 
ATOM     12  C4    T A   1      44.258  83.099  52.825  0.00  0.00    +0.257 C 
ATOM     13  O4    T A   1      43.151  82.844  52.302  0.00  0.00    -0.267 OA
ATOM     14  N3    T A   1      44.379  84.118  53.780  0.00  0.00    -0.275 N 
ATOM     15  H3    T A   1      43.494  84.689  53.966  0.00  0.00    +0.173 HD
ATOM     16  C2    T A   1      45.500  84.482  54.516  0.00  0.00    +0.331 C 
ATOM     17  O2    T A   1      45.419  85.372  55.352  0.00  0.00    -0.246 OA
ENDBRANCH   7   8
BRANCH   5  18
ATOM     18  O3*   T A   1      50.192  84.715  56.106  0.00  0.00    -0.389 OA
ATOM     19  H3*   T A   1      51.114  85.166  55.886  0.00  0.00    +0.210 HD
ENDBRANCH   5  18
BRANCH   4   3
ATOM      3  C5*   T A   1      50.653  82.696  53.146  0.00  0.00    +0.190 C 
BRANCH   3   1
ATOM      1  O5*   T A   1      49.862  81.489  53.395  0.00  0.00    -0.392 OA
ATOM      2  H5*   T A   1      49.948  81.216  54.405  0.00  0.00    +0.209 HD
ENDBRANCH   3   1
ENDBRANCH   4   3
TORSDOF 4
