REMARK  Name = 5UKK
REMARK  7 active torsions:
REMARK  status: ('A' for Active; 'I' for Inactive)
REMARK    1  A    between atoms: C_2  and  C_11
REMARK    2  A    between atoms: N_3  and  C_4
REMARK    3  A    between atoms: C_4  and  C_5
REMARK    4  A    between atoms: C_15  and  C_18
REMARK    5  A    between atoms: C_19  and  C_24
REMARK    6  A    between atoms: C_24  and  O_25
REMARK    7  A    between atoms: O_25  and  C_26
REMARK                            x       y       z     vdW  Elec       q    Type
REMARK                         _______ _______ _______ _____ _____    ______ ____
ROOT
ATOM      3  C   UNL     1     111.152  35.181  75.265  0.00  0.00    +0.072 A 
ATOM      4  C   UNL     1     111.730  35.988  76.239  0.00  0.00    +0.019 A 
ATOM      5  C   UNL     1     112.373  35.446  77.353  0.00  0.00    -0.043 A 
ATOM     24  C   UNL     1     112.414  34.055  77.472  0.00  0.00    +0.007 A 
ATOM     25  C   UNL     1     111.821  33.243  76.498  0.00  0.00    +0.039 A 
ATOM     26  C   UNL     1     111.189  33.810  75.390  0.00  0.00    +0.136 A 
ATOM     27  F   UNL     1     110.616  33.042  74.449  0.00  0.00    -0.205 F 
ENDROOT
BRANCH   5   6
ATOM      6  C   UNL     1     113.012  36.319  78.386  0.00  0.00    +0.028 C 
ATOM      7  C   UNL     1     112.069  37.450  78.821  0.00  0.00    +0.023 C 
ATOM      8  C   UNL     1     112.712  38.368  79.838  0.00  0.00    +0.081 C 
ATOM      9  N   UNL     1     114.016  38.833  79.351  0.00  0.00    -0.316 NA
ATOM     10  H   UNL     1     113.867  39.395  78.453  0.00  0.00    +0.122 HD
ATOM     11  C   UNL     1     114.933  37.723  79.067  0.00  0.00    +0.088 C 
ATOM     12  C   UNL     1     114.344  36.928  77.921  0.00  0.00    +0.048 C 
BRANCH  12  13
ATOM     13  C   UNL     1     115.411  35.952  77.440  0.00  0.00    +0.234 C 
BRANCH  13  14
ATOM     14  O   UNL     1     115.691  35.010  78.450  0.00  0.00    -0.491 OA
BRANCH  14  15
ATOM     15  C   UNL     1     116.838  34.266  78.584  0.00  0.00    +0.124 A 
ATOM     16  C   UNL     1     116.945  33.512  79.760  0.00  0.00    +0.049 A 
ATOM     17  C   UNL     1     118.061  32.711  80.009  0.00  0.00    +0.053 A 
ATOM     18  C   UNL     1     119.057  32.678  79.054  0.00  0.00    +0.167 A 
ATOM     19  O   UNL     1     120.224  31.978  79.059  0.00  0.00    -0.453 OA
ATOM     20  C   UNL     1     120.962  32.338  77.883  0.00  0.00    +0.466 C 
ATOM     21  O   UNL     1     120.067  33.202  77.167  0.00  0.00    -0.453 OA
ATOM     22  C   UNL     1     118.957  33.412  77.918  0.00  0.00    +0.170 A 
ATOM     23  C   UNL     1     117.861  34.214  77.634  0.00  0.00    +0.095 A 
ENDBRANCH  14  15
ENDBRANCH  13  14
ENDBRANCH  12  13
ENDBRANCH   5   6
BRANCH   3   2
ATOM      1  O   UNL     1     109.302  35.525  73.856  0.00  0.00    -0.270 OA
ATOM      2  C   UNL     1     110.460  35.846  74.117  0.00  0.00    +0.247 C 
ATOM     28  N   UNL     1     111.115  36.830  73.500  0.00  0.00    -0.306 N 
ATOM     29  H   UNL     1     112.152  36.972  73.721  0.00  0.00    +0.149 HD
BRANCH  28  30
ATOM     30  C   UNL     1     110.485  37.712  72.546  0.00  0.00    +0.160 C 
BRANCH  30  31
ATOM     31  C   UNL     1     110.433  37.095  71.172  0.00  0.00    +0.058 A 
ATOM     32  C   UNL     1     111.371  36.145  70.745  0.00  0.00    +0.025 A 
ATOM     33  C   UNL     1     111.258  35.647  69.454  0.00  0.00    +0.003 A 
ATOM     34  C   UNL     1     110.226  36.097  68.630  0.00  0.00    +0.020 A 
ATOM     35  C   UNL     1     109.316  37.040  69.091  0.00  0.00    +0.111 A 
ATOM     36  N   UNL     1     109.443  37.518  70.336  0.00  0.00    -0.258 NA
ENDBRANCH  30  31
ENDBRANCH  28  30
ENDBRANCH   3   2
TORSDOF 7
