REMARK  Name = 2V4L
REMARK  6 active torsions:
REMARK  status: ('A' for Active; 'I' for Inactive)
REMARK    1  A    between atoms: C_1  and  C_2
REMARK    2  A    between atoms: C_2  and  C_3
REMARK    3  A    between atoms: C_2  and  N_4
REMARK    4  A    between atoms: C_10  and  N_11
REMARK    5  A    between atoms: C_13  and  C_14
REMARK    6  A    between atoms: C_19  and  O_20
REMARK                            x       y       z     vdW  Elec       q    Type
REMARK                         _______ _______ _______ _____ _____    ______ ____
ROOT
ATOM      3  N   UNL     1      46.381  14.799  31.489  0.00  0.00    -0.243 N 
ATOM      4  C   UNL     1      46.974  13.740  30.912  0.00  0.00    +0.164 A 
ATOM      5  C   UNL     1      46.011  12.724  30.868  0.00  0.00    +0.086 A 
ATOM      6  C   UNL     1      44.885  13.289  31.482  0.00  0.00    +0.105 A 
ATOM     15  C   UNL     1      46.369  11.500  30.297  0.00  0.00    +0.131 A 
ATOM     19  N   UNL     1      47.609  11.357  29.808  0.00  0.00    -0.220 NA
ATOM     20  C   UNL     1      48.508  12.346  29.864  0.00  0.00    +0.225 A 
ATOM     21  N   UNL     1      48.203  13.512  30.400  0.00  0.00    -0.216 NA
ATOM     22  N   UNL     1      45.217  14.543  31.810  0.00  0.00    -0.168 NA
ENDROOT
BRANCH   6   7
ATOM      7  C   UNL     1      43.632  12.705  31.685  0.00  0.00    +0.006 A 
ATOM      8  C   UNL     1      42.973  12.050  30.650  0.00  0.00    +0.010 A 
ATOM      9  C   UNL     1      41.703  11.493  30.845  0.00  0.00    +0.004 A 
ATOM     10  C   UNL     1      41.065  11.598  32.073  0.00  0.00    +0.045 A 
ATOM     11  C   UNL     1      41.706  12.263  33.115  0.00  0.00    +0.117 A 
ATOM     14  C   UNL     1      42.981  12.816  32.922  0.00  0.00    +0.055 A 
BRANCH  11  12
ATOM     12  O   UNL     1      41.079  12.353  34.316  0.00  0.00    -0.507 OA
ATOM     13  H   UNL     1      41.662  11.883  35.052  0.00  0.00    +0.292 HD
ENDBRANCH  11  12
ENDBRANCH   6   7
BRANCH   3   2
ATOM      1  C   UNL     1      45.942  17.189  31.898  0.00  0.00    +0.032 C 
ATOM      2  C   UNL     1      47.007  16.107  31.771  0.00  0.00    +0.103 C 
ATOM     23  C   UNL     1      47.774  16.018  33.091  0.00  0.00    +0.032 C 
ENDBRANCH   3   2
BRANCH  15  16
ATOM     16  N   UNL     1      45.538  10.480  30.218  0.00  0.00    -0.343 N 
ATOM     17  H   UNL     1      44.543  10.570  30.601  0.00  0.00    +0.144 HD
ATOM     18  H   UNL     1      45.858   9.562  29.771  0.00  0.00    +0.144 HD
ENDBRANCH  15  16
TORSDOF 4
