REMARK  Name = CJN
REMARK  4 active torsions:
REMARK  status: ('A' for Active; 'I' for Inactive)
REMARK    1  A    between atoms: C2_2  and  N4_14
REMARK    2  A    between atoms: C11_6  and  N12_19
REMARK    3  A    between atoms: C13_7  and  N12_19
REMARK    4  A    between atoms: C17_20  and  N21_21
REMARK                            x       y       z     vdW  Elec       q    Type
REMARK                         _______ _______ _______ _____ _____    ______ ____
ROOT
ATOM      3  N   UNL     1     -27.465 -16.166 -10.710  0.00  0.00    -0.325 N 
ATOM      4  C   UNL     1     -28.465 -16.378  -9.795  0.00  0.00    +0.077 A 
ATOM      5  C   UNL     1     -27.958 -16.517  -8.561  0.00  0.00    +0.039 A 
ATOM      6  C   UNL     1     -26.509 -16.405  -8.660  0.00  0.00    +0.103 A 
ATOM      7  N   UNL     1     -25.522 -16.460  -7.750  0.00  0.00    -0.222 NA
ATOM      8  C   UNL     1     -24.252 -16.325  -8.071  0.00  0.00    +0.200 A 
ATOM      9  N   UNL     1     -23.929 -16.147  -9.339  0.00  0.00    -0.206 NA
ATOM     10  C   UNL     1     -24.828 -16.059 -10.337  0.00  0.00    +0.167 A 
ATOM     21  C   UNL     1     -26.218 -16.183 -10.036  0.00  0.00    +0.111 A 
ENDROOT
BRANCH   3   2
ATOM      1  C   UNL     1     -29.088 -16.624 -12.572  0.00  0.00    +0.025 C 
ATOM      2  C   UNL     1     -27.758 -15.975 -12.155  0.00  0.00    +0.086 C 
ATOM     22  C   UNL     1     -27.843 -14.491 -12.555  0.00  0.00    +0.025 C 
ENDBRANCH   3   2
BRANCH  10  11
ATOM     11  N   UNL     1     -24.361 -15.882 -11.631  0.00  0.00    -0.221 NA
BRANCH  11  12
ATOM     12  C   UNL     1     -22.921 -15.867 -11.969  0.00  0.00    +0.094 C 
ATOM     13  C   UNL     1     -22.350 -17.300 -12.127  0.00  0.00    +0.023 C 
ATOM     14  C   UNL     1     -20.859 -17.286 -12.514  0.00  0.00    +0.018 C 
ATOM     15  C   UNL     1     -20.613 -16.382 -13.744  0.00  0.00    +0.058 C 
ATOM     16  C   UNL     1     -21.231 -14.970 -13.571  0.00  0.00    +0.018 C 
ATOM     20  C   UNL     1     -22.738 -15.074 -13.279  0.00  0.00    +0.023 C 
BRANCH  15  17
ATOM     17  N   UNL     1     -19.164 -16.321 -14.094  0.00  0.00    -0.272 NA
ATOM     18  C   UNL     1     -18.228 -15.717 -13.126  0.00  0.00    +0.090 C 
ATOM     19  C   UNL     1     -18.868 -15.914 -15.490  0.00  0.00    +0.090 C 
ENDBRANCH  15  17
ENDBRANCH  11  12
ENDBRANCH  10  11
TORSDOF 4
