REMARK  Name = 4fjz_ligand
REMARK  4 active torsions:
REMARK  status: ('A' for Active; 'I' for Inactive)
REMARK    1  A    between atoms: C11_1  and  C8_25
REMARK    2  A    between atoms: C21_7  and  N5_20
REMARK    3  A    between atoms: N2_23  and  C7_24
REMARK    4  A    between atoms: C9_34  and  C10_35
REMARK                            x       y       z     vdW  Elec       q    Type
REMARK                         _______ _______ _______ _____ _____    ______ ____
ROOT
ATOM     19  N   UNL     1      23.214  15.909  19.681  0.00  0.00    -0.240 N 
ATOM     20  C   UNL     1      23.372  14.959  20.619  0.00  0.00    +0.106 A 
ATOM     21  C   UNL     1      24.663  14.428  20.576  0.00  0.00    +0.029 A 
ATOM     22  N   UNL     1      25.059  13.467  21.426  0.00  0.00    -0.290 NA
ATOM     23  C   UNL     1      24.243  12.988  22.348  0.00  0.00    +0.141 A 
ATOM     24  C   UNL     1      22.937  13.469  22.449  0.00  0.00    +0.096 A 
ATOM     31  C   UNL     1      25.425  15.105  19.469  0.00  0.00    -0.016 C 
ATOM     32  C   UNL     1      26.714  15.733  20.013  0.00  0.00    -0.027 C 
ATOM     33  C   UNL     1      27.548  16.242  18.842  0.00  0.00    +0.147 C 
ATOM     34  O   UNL     1      27.949  15.092  18.087  0.00  0.00    -0.382 OA
ATOM     35  C   UNL     1      26.801  14.550  17.418  0.00  0.00    +0.147 C 
ATOM     36  C   UNL     1      25.733  14.046  18.393  0.00  0.00    -0.027 C 
ATOM     37  C   UNL     1      22.501  14.461  21.582  0.00  0.00    +0.090 A 
ATOM     38  C   UNL     1      24.470  16.186  18.958  0.00  0.00    +0.120 C 
ENDROOT
BRANCH  19  18
ATOM      1  C   UNL     1      22.299  17.839  21.594  0.00  0.00    +0.086 C 
ATOM      2  C   UNL     1      21.532  17.501  20.308  0.00  0.00    +0.018 A 
ATOM      3  C   UNL     1      20.315  18.141  19.998  0.00  0.00    +0.056 A 
ATOM     10  N   UNL     1      19.646  17.833  18.874  0.00  0.00    -0.314 NA
ATOM     11  C   UNL     1      20.119  16.923  18.015  0.00  0.00    +0.029 A 
ATOM     12  C   UNL     1      19.401  16.644  16.858  0.00  0.00    +0.044 A 
ATOM     13  C   UNL     1      19.873  15.704  15.949  0.00  0.00    +0.134 A 
ATOM     14  F   UNL     1      19.189  15.428  14.819  0.00  0.00    -0.182 F 
ATOM     15  C   UNL     1      21.069  15.044  16.200  0.00  0.00    +0.037 A 
ATOM     16  C   UNL     1      21.791  15.324  17.354  0.00  0.00    +0.016 A 
ATOM     17  C   UNL     1      21.322  16.263  18.268  0.00  0.00    +0.030 A 
ATOM     18  C   UNL     1      22.052  16.546  19.427  0.00  0.00    +0.106 A 
BRANCH   3   4
ATOM      4  C   UNL     1      19.744  19.085  20.853  0.00  0.00    +0.066 A 
ATOM      5  N   UNL     1      20.349  20.261  21.108  0.00  0.00    -0.288 NA
ATOM      6  C   UNL     1      19.803  21.156  21.927  0.00  0.00    +0.095 A 
ATOM      7  C   UNL     1      18.578  20.909  22.553  0.00  0.00    +0.039 A 
ATOM      8  C   UNL     1      17.921  19.707  22.314  0.00  0.00    +0.034 A 
ATOM      9  C   UNL     1      18.515  18.788  21.454  0.00  0.00    +0.049 A 
ENDBRANCH   3   4
ENDBRANCH  19  18
BRANCH  24  25
ATOM     25  N   UNL     1      22.070  12.966  23.408  0.00  0.00    -0.283 N 
ATOM     26  C   UNL     1      20.870  13.714  23.817  0.00  0.00    +0.170 C 
ATOM     27  C   UNL     1      19.666  12.788  24.049  0.00  0.00    +0.185 C 
ATOM     28  O   UNL     1      20.051  11.622  24.778  0.00  0.00    -0.376 OA
ATOM     29  C   UNL     1      21.034  10.905  24.025  0.00  0.00    +0.185 C 
ATOM     30  C   UNL     1      22.330  11.677  24.035  0.00  0.00    +0.170 C 
ENDBRANCH  24  25
TORSDOF 3
