REMARK  Name = 5TOZ
REMARK  4 active torsions:
REMARK  status: ('A' for Active; 'I' for Inactive)
REMARK    1  A    between atoms: N_3  and  C_13
REMARK    2  A    between atoms: C_4  and  C_8
REMARK    3  A    between atoms: C_6  and  C_8
REMARK    4  A    between atoms: C_10  and  C_11
REMARK                            x       y       z     vdW  Elec       q    Type
REMARK                         _______ _______ _______ _____ _____    ______ ____
ROOT
ATOM      1  N   UNL     1       1.153  12.078  -3.567  0.00  0.00    -0.235 NA
ATOM      2  C   UNL     1       1.311  13.437  -3.484  0.00  0.00    +0.165 A 
ATOM      3  N   UNL     1       2.449  14.103  -3.062  0.00  0.00    -0.216 NA
ATOM      4  C   UNL     1       2.303  15.454  -3.133  0.00  0.00    +0.225 A 
ATOM      5  N   UNL     1       1.223  16.187  -3.533  0.00  0.00    -0.220 NA
ATOM      6  C   UNL     1       0.107  15.484  -3.945  0.00  0.00    +0.132 A 
ATOM      7  N   UNL     1      -1.034  16.144  -4.383  0.00  0.00    -0.324 N 
ATOM      8  H   UNL     1      -1.849  15.521  -4.689  0.00  0.00    +0.148 HD
ATOM     20  C   UNL     1       0.103  14.052  -3.949  0.00  0.00    +0.060 A 
ATOM     21  C   UNL     1      -0.791  13.008  -4.338  0.00  0.00    +0.035 A 
ATOM     22  C   UNL     1      -0.142  11.810  -4.084  0.00  0.00    +0.114 A 
ENDROOT
BRANCH   7   9
ATOM      9  C   UNL     1      -1.257  17.579  -4.477  0.00  0.00    +0.089 C 
ATOM     10  C   UNL     1      -0.613  18.056  -5.771  0.00  0.00    +0.130 C 
ATOM     11  N   UNL     1      -0.950  19.462  -6.054  0.00  0.00    -0.297 N 
ATOM     12  C   UNL     1      -2.427  19.758  -6.121  0.00  0.00    +0.073 C 
ATOM     13  C   UNL     1      -3.082  19.323  -4.815  0.00  0.00    +0.024 C 
ATOM     14  C   UNL     1      -3.124  19.209  -7.362  0.00  0.00    +0.028 C 
ATOM     15  C   UNL     1       0.058  20.476  -6.106  0.00  0.00    +0.216 C 
ATOM     16  O   UNL     1       1.228  20.249  -5.758  0.00  0.00    -0.276 OA
ATOM     19  C   UNL     1      -2.754  17.864  -4.456  0.00  0.00    +0.025 C 
BRANCH  15  17
ATOM     17  C   UNL     1      -0.262  21.938  -6.503  0.00  0.00    +0.092 C 
ATOM     18  C   UNL     1      -0.519  21.978  -8.001  0.00  0.00    +0.013 C 
ENDBRANCH  15  17
ENDBRANCH   7   9
TORSDOF 2
