REMARK  Name = 3gb2_ligand
REMARK  6 active torsions:
REMARK  status: ('A' for Active; 'I' for Inactive)
REMARK    1  A    between atoms: O21_1  and  S24_2
REMARK    2  A    between atoms: S24_2  and  C18_3
REMARK    3  A    between atoms: S24_2  and  C14_4
REMARK    4  A    between atoms: C10_8  and  C12_10
REMARK    5  A    between atoms: C11_17  and  C15_19
REMARK    6  A    between atoms: C16_21  and  C17_22
REMARK                            x       y       z     vdW  Elec       q    Type
REMARK                         _______ _______ _______ _____ _____    ______ ____
ROOT
ATOM      8  C   UNL     1      30.711  18.539   2.647  0.00  0.00    +0.101 A 
ATOM      9  C   UNL     1      30.567  19.929   2.661  0.00  0.00    +0.377 A 
ATOM     10  O   UNL     1      31.788  20.490   2.066  0.00  0.00    -0.185 OA
ATOM     11  C   UNL     1      32.645  19.444   1.709  0.00  0.00    +0.175 A 
ATOM     12  C   UNL     1      33.883  19.523   1.130  0.00  0.00    +0.065 A 
ATOM     13  C   UNL     1      34.507  18.315   0.876  0.00  0.00    +0.037 A 
ATOM     14  C   UNL     1      33.940  17.086   1.203  0.00  0.00    +0.054 A 
ATOM     21  C   UNL     1      32.688  16.987   1.783  0.00  0.00    +0.062 A 
ATOM     22  C   UNL     1      32.035  18.174   2.045  0.00  0.00    +0.066 A 
ENDROOT
BRANCH   8   7
ATOM      4  C   UNL     1      27.828  15.835   4.175  0.00  0.00    +0.064 A 
ATOM      5  C   UNL     1      29.108  15.846   4.708  0.00  0.00    +0.051 A 
ATOM      6  C   UNL     1      30.042  16.736   4.205  0.00  0.00    +0.052 A 
ATOM      7  C   UNL     1      29.696  17.597   3.169  0.00  0.00    +0.033 A 
ATOM     23  C   UNL     1      28.417  17.599   2.630  0.00  0.00    +0.052 A 
ATOM     24  C   UNL     1      27.484  16.707   3.140  0.00  0.00    +0.051 A 
BRANCH   4   3
ATOM      3  S   UNL     1      26.578  14.694   4.799  0.00  0.00    -0.015 S 
ATOM     25  C   UNL     1      26.703  13.069   4.025  0.00  0.00    +0.135 C 
BRANCH   3   1
ATOM      1  O   UNL     1      25.260  15.314   4.449  0.00  0.00    -0.317 OA
ATOM      2  H   UNL     1      25.195  16.169   4.857  0.00  0.00    +0.234 HD
ENDBRANCH   3   1
ENDBRANCH   4   3
ENDBRANCH   8   7
BRANCH  14  15
ATOM     15  C   UNL     1      34.689  15.860   0.860  0.00  0.00    +0.218 A 
ATOM     16  N   UNL     1      35.745  15.830   0.023  0.00  0.00    -0.247 NA
ATOM     17  N   UNL     1      36.175  14.505  -0.111  0.00  0.00    -0.248 NA
ATOM     18  C   UNL     1      35.336  13.794   0.656  0.00  0.00    +0.197 A 
ATOM     19  C   UNL     1      35.229  12.323   0.953  0.00  0.00    +0.180 C 
ATOM     20  O   UNL     1      34.408  14.591   1.263  0.00  0.00    -0.191 OA
ENDBRANCH  14  15
TORSDOF 4
