REMARK  Name = 5EW8
REMARK  14 active torsions:
REMARK  status: ('A' for Active; 'I' for Inactive)
REMARK    1  A    between atoms: C_1  and  C_2
REMARK    2  A    between atoms: C_1  and  N_26
REMARK    3  A    between atoms: C_1  and  C_27
REMARK    4  A    between atoms: C_3  and  C_25
REMARK    5  A    between atoms: C_3  and  N_26
REMARK    6  A    between atoms: C_8  and  C_10
REMARK    7  A    between atoms: C_13  and  N_30
REMARK    8  A    between atoms: C_14  and  O_19
REMARK    9  A    between atoms: C_16  and  O_21
REMARK   10  A    between atoms: C_18  and  O_19
REMARK   11  A    between atoms: O_21  and  C_22
REMARK   12  A    between atoms: C_23  and  N_24
REMARK   13  A    between atoms: N_24  and  C_25
REMARK   14  A    between atoms: N_24  and  C_28
REMARK                            x       y       z     vdW  Elec       q    Type
REMARK                         _______ _______ _______ _____ _____    ______ ____
ROOT
ATOM      7  N   UNL     1      88.076   2.535  13.326  0.00  0.00    -0.299 N 
ENDROOT
BRANCH   7   8
ATOM      8  C   UNL     1      88.112   1.752  12.144  0.00  0.00    +0.036 A 
ATOM      9  C   UNL     1      88.922   0.605  12.069  0.00  0.00    +0.026 A 
ATOM     10  C   UNL     1      88.902  -0.209  10.974  0.00  0.00    +0.032 A 
ATOM     11  C   UNL     1      88.066   0.081   9.876  0.00  0.00    +0.089 A 
ATOM     12  N   UNL     1      88.042  -0.766   8.798  0.00  0.00    -0.251 NA
ATOM     13  C   UNL     1      87.161  -0.498   7.854  0.00  0.00    +0.139 A 
ATOM     14  C   UNL     1      86.308   0.605   7.915  0.00  0.00    +0.089 A 
ATOM     15  N   UNL     1      86.326   1.455   8.930  0.00  0.00    -0.244 NA
ATOM     23  C   UNL     1      87.218   1.202   9.937  0.00  0.00    +0.092 A 
ATOM     24  C   UNL     1      87.267   2.052  11.062  0.00  0.00    +0.053 A 
BRANCH  14  16
ATOM     16  C   UNL     1      85.344   0.897   6.825  0.00  0.00    +0.015 C 
ATOM     17  C   UNL     1      84.530   1.992   6.707  0.00  0.00    +0.132 C 
ATOM     18  N   UNL     1      83.715   1.800   5.662  0.00  0.00    -0.223 NA
ATOM     19  N   UNL     1      83.965   0.589   5.064  0.00  0.00    -0.284 N 
ATOM     20  H   UNL     1      83.473   0.165   4.214  0.00  0.00    +0.166 HD
ATOM     21  C   UNL     1      82.680   2.698   5.164  0.00  0.00    +0.128 C 
ATOM     22  C   UNL     1      84.951   0.063   5.775  0.00  0.00    +0.091 C 
ENDBRANCH  14  16
ENDBRANCH   7   8
BRANCH   7  25
ATOM     25  C   UNL     1      88.824   2.127  14.464  0.00  0.00    +0.041 A 
ATOM     26  C   UNL     1      89.977   2.817  14.836  0.00  0.00    +0.069 A 
ATOM     27  C   UNL     1      90.607   2.476  16.026  0.00  0.00    +0.125 A 
ATOM     30  C   UNL     1      90.145   1.425  16.804  0.00  0.00    +0.091 A 
ATOM     31  C   UNL     1      89.009   0.737  16.407  0.00  0.00    +0.125 A 
ATOM     34  C   UNL     1      88.342   1.073  15.239  0.00  0.00    +0.069 A 
BRANCH  27  28
ATOM     28  O   UNL     1      91.710   3.237  16.329  0.00  0.00    -0.495 OA
ATOM     29  C   UNL     1      92.374   3.053  17.573  0.00  0.00    +0.277 C 
ENDBRANCH  27  28
BRANCH  31  32
ATOM     32  O   UNL     1      88.428  -0.305  17.086  0.00  0.00    -0.495 OA
ATOM     33  C   UNL     1      89.098  -0.845  18.217  0.00  0.00    +0.277 C 
ENDBRANCH  31  32
ENDBRANCH   7  25
BRANCH   7   6
ATOM      6  C   UNL     1      87.080   3.594  13.570  0.00  0.00    +0.126 C 
BRANCH   6   5
ATOM      5  C   UNL     1      85.748   2.909  13.835  0.00  0.00    +0.100 C 
BRANCH   5   3
ATOM      3  N   UNL     1      84.711   3.891  14.194  0.00  0.00    -0.312 NA
ATOM      4  H   UNL     1      84.888   4.821  13.828  0.00  0.00    +0.122 HD
BRANCH   3   1
ATOM      1  C   UNL     1      83.333   3.428  13.935  0.00  0.00    +0.048 C 
ATOM      2  C   UNL     1      83.086   2.081  14.560  0.00  0.00    +0.024 C 
ATOM     35  C   UNL     1      82.357   4.468  14.439  0.00  0.00    +0.024 C 
ENDBRANCH   3   1
ENDBRANCH   5   3
ENDBRANCH   6   5
ENDBRANCH   7   6
TORSDOF 9
