REMARK  Name = 2uzl_ligand
REMARK  5 active torsions:
REMARK  status: ('A' for Active; 'I' for Inactive)
REMARK    1  A    between atoms: S2_2  and  N6_4
REMARK    2  A    between atoms: S2_2  and  C16_5
REMARK    3  A    between atoms: C15_6  and  C24_7
REMARK    4  A    between atoms: C13_12  and  C4_15
REMARK    5  A    between atoms: C1_19  and  C6_20
REMARK                            x       y       z     vdW  Elec       q    Type
REMARK                         _______ _______ _______ _____ _____    ______ ____
ROOT
ATOM      3  C   UNL     1      69.331  62.605  18.921  0.00  0.00    +0.136 A 
ATOM      4  C   UNL     1      69.237  61.532  18.047  0.00  0.00    +0.064 A 
ATOM      5  C   UNL     1      70.184  60.527  18.076  0.00  0.00    +0.060 A 
ATOM      6  C   UNL     1      71.237  60.581  18.977  0.00  0.00    +0.040 A 
ATOM     22  C   UNL     1      71.334  61.640  19.872  0.00  0.00    +0.061 A 
ATOM     23  C   UNL     1      70.374  62.655  19.854  0.00  0.00    +0.073 A 
ENDROOT
BRANCH   6   7
ATOM      7  C   UNL     1      72.224  59.456  18.972  0.00  0.00    +0.130 A 
ATOM      8  C   UNL     1      73.525  59.456  19.460  0.00  0.00    -0.005 A 
ATOM      9  C   UNL     1      74.064  58.198  19.195  0.00  0.00    -0.008 A 
ATOM     10  C   UNL     1      73.082  57.450  18.552  0.00  0.00    +0.115 A 
ATOM     21  O   UNL     1      71.979  58.236  18.419  0.00  0.00    -0.255 OA
BRANCH  10  11
ATOM     11  C   UNL     1      73.186  56.059  18.058  0.00  0.00    +0.061 C 
ATOM     12  C   UNL     1      72.180  55.553  17.318  0.00  0.00    +0.122 C 
ATOM     13  C   UNL     1      72.183  54.292  16.728  0.00  0.00    +0.253 C 
ATOM     14  O   UNL     1      73.112  53.493  16.810  0.00  0.00    -0.372 OA
ATOM     15  N   UNL     1      71.046  54.050  16.057  0.00  0.00    -0.190 N 
ATOM     16  H   UNL     1      70.866  53.196  15.570  0.00  0.00    +0.244 HD
ATOM     17  C   UNL     1      70.178  55.067  16.106  0.00  0.00    +0.192 C 
ATOM     18  N   UNL     1      69.040  55.056  15.541  0.00  0.00    -0.384 NA
ATOM     19  H   UNL     1      68.741  54.243  15.026  0.00  0.00    +0.055 HD
ATOM     20  S   UNL     1      70.764  56.355  16.977  0.00  0.00    +0.036 S 
ENDBRANCH  10  11
ENDBRANCH   6   7
BRANCH  23  24
ATOM     24  C   UNL     1      70.491  63.810  20.845  0.00  0.00    +0.378 C 
ATOM     25  F   UNL     1      69.719  63.575  21.901  0.00  0.00    -0.220 F 
ATOM     26  F   UNL     1      71.753  63.916  21.241  0.00  0.00    -0.220 F 
ATOM     27  F   UNL     1      70.117  64.948  20.271  0.00  0.00    -0.220 F 
ENDBRANCH  23  24
BRANCH   3   2
ATOM      1  O   UNL     1      67.945  64.397  20.145  0.00  0.00    -0.147 OA
ATOM      2  S   UNL     1      68.078  63.840  18.848  0.00  0.00    +0.077 S 
ATOM     31  O   UNL     1      68.484  64.806  17.889  0.00  0.00    -0.147 OA
BRANCH   2  28
ATOM     28  N   UNL     1      66.751  63.074  18.397  0.00  0.00    -0.258 NA
ATOM     29  H   UNL     1      66.313  63.302  17.527  0.00  0.00    +0.164 HD
ATOM     30  H   UNL     1      66.358  62.366  18.984  0.00  0.00    +0.164 HD
ENDBRANCH   2  28
ENDBRANCH   3   2
TORSDOF 5
