REMARK  Name = 5FXR
REMARK  4 active torsions:
REMARK  status: ('A' for Active; 'I' for Inactive)
REMARK    1  A    between atoms: C_1  and  C_4
REMARK    2  A    between atoms: C_3  and  N_13
REMARK    3  A    between atoms: N_6  and  C_7
REMARK    4  A    between atoms: C_18  and  C_20
REMARK                            x       y       z     vdW  Elec       q    Type
REMARK                         _______ _______ _______ _____ _____    ______ ____
ROOT
ATOM     15  N   UNL     1      11.350  -2.323  54.295  0.00  0.00    -0.285 N 
ATOM     16  H   UNL     1      10.837  -1.637  54.937  0.00  0.00    +0.155 HD
ATOM     17  C   UNL     1      12.725  -2.427  54.424  0.00  0.00    +0.220 A 
ATOM     18  N   UNL     1      13.332  -3.434  53.787  0.00  0.00    -0.211 NA
ATOM     19  C   UNL     1      14.652  -3.495  53.929  0.00  0.00    +0.112 A 
ATOM     30  C   UNL     1      15.341  -2.574  54.685  0.00  0.00    +0.087 A 
ATOM     31 CL   UNL     1      17.028  -2.588  54.883  0.00  0.00    -0.080 Cl
ATOM     32  C   UNL     1      14.629  -1.594  55.325  0.00  0.00    +0.136 A 
ATOM     33  N   UNL     1      13.304  -1.504  55.206  0.00  0.00    -0.221 NA
ENDROOT
BRANCH  19  20
ATOM     20  C   UNL     1      15.295  -4.582  53.156  0.00  0.00    +0.091 A 
ATOM     21  N   UNL     1      14.596  -5.594  52.522  0.00  0.00    -0.300 N 
ATOM     22  C   UNL     1      13.264  -5.875  52.496  0.00  0.00    +0.089 C 
ATOM     23  C   UNL     1      12.843  -6.925  51.776  0.00  0.00    -0.005 C 
ATOM     24  C   UNL     1      13.758  -7.758  51.033  0.00  0.00    +0.059 C 
ATOM     25  C   UNL     1      15.067  -7.483  51.061  0.00  0.00    +0.022 C 
ATOM     26  C   UNL     1      15.525  -6.363  51.831  0.00  0.00    +0.112 A 
ATOM     27  N   UNL     1      16.757  -5.875  52.035  0.00  0.00    -0.346 N 
ATOM     28  H   UNL     1      17.671  -6.271  51.643  0.00  0.00    +0.167 HD
ATOM     29  C   UNL     1      16.624  -4.761  52.850  0.00  0.00    +0.112 A 
ENDBRANCH  19  20
BRANCH  15  14
ATOM      1  C   UNL     1      11.907  -2.901  51.313  0.00  0.00    +0.063 C 
ATOM      2  C   UNL     1      10.866  -3.292  52.046  0.00  0.00    +0.034 C 
ATOM      3  N   UNL     1       9.871  -4.020  51.516  0.00  0.00    -0.280 N 
ATOM      4  H   UNL     1       9.769  -4.371  50.510  0.00  0.00    +0.166 HD
ATOM      5  N   UNL     1       9.032  -4.203  52.554  0.00  0.00    -0.221 NA
ATOM     13  C   UNL     1       9.425  -3.623  53.724  0.00  0.00    +0.158 C 
ATOM     14  C   UNL     1      10.619  -3.028  53.416  0.00  0.00    +0.044 C 
BRANCH   5   6
ATOM      6  C   UNL     1       7.781  -4.927  52.433  0.00  0.00    +0.079 C 
ATOM      7  C   UNL     1       7.889  -6.142  51.563  0.00  0.00    +0.036 C 
ATOM      8  C   UNL     1       6.560  -6.855  51.614  0.00  0.00    +0.082 C 
ATOM      9  N   UNL     1       5.593  -5.926  50.986  0.00  0.00    -0.316 NA
ATOM     10  H   UNL     1       5.956  -5.662  50.014  0.00  0.00    +0.122 HD
ATOM     11  C   UNL     1       5.391  -4.686  51.765  0.00  0.00    +0.082 C 
ATOM     12  C   UNL     1       6.742  -4.000  51.849  0.00  0.00    +0.036 C 
ENDBRANCH   5   6
ENDBRANCH  15  14
TORSDOF 3
