REMARK  Name = 4OLI
REMARK  4 active torsions:
REMARK  status: ('A' for Active; 'I' for Inactive)
REMARK    1  A    between atoms: C_1  and  C_8
REMARK    2  A    between atoms: N_10  and  C_11
REMARK    3  A    between atoms: C_15  and  N_16
REMARK    4  A    between atoms: C_17  and  C_19
REMARK                            x       y       z     vdW  Elec       q    Type
REMARK                         _______ _______ _______ _____ _____    ______ ____
ROOT
ATOM      5  C   UNL     1     -28.799  21.365  11.472  0.00  0.00    +0.038 A 
ATOM      6  C   UNL     1     -28.250  20.602  12.505  0.00  0.00    +0.067 A 
ATOM      7  C   UNL     1     -28.999  20.326  13.644  0.00  0.00    +0.127 A 
ATOM     15  N   UNL     1     -30.253  20.767  13.721  0.00  0.00    -0.240 NA
ATOM     16  C   UNL     1     -30.828  21.491  12.764  0.00  0.00    +0.114 A 
ATOM     17  C   UNL     1     -30.132  21.799  11.609  0.00  0.00    +0.043 A 
ENDROOT
BRANCH   5   3
ATOM      2  C   UNL     1     -28.412  21.888   9.083  0.00  0.00    +0.250 C 
ATOM      3  N   UNL     1     -28.011  21.517  10.321  0.00  0.00    -0.281 N 
ATOM      4  H   UNL     1     -26.967  21.315  10.436  0.00  0.00    +0.155 HD
ATOM     18  O   UNL     1     -29.562  22.189   8.817  0.00  0.00    -0.270 OA
BRANCH   2   1
ATOM      1  C   UNL     1     -27.398  21.858   8.009  0.00  0.00    +0.055 A 
ATOM     19  C   UNL     1     -26.135  22.453   8.190  0.00  0.00    +0.014 A 
ATOM     20  C   UNL     1     -25.174  22.328   7.197  0.00  0.00    +0.001 A 
ATOM     21  C   UNL     1     -25.435  21.569   6.059  0.00  0.00    +0.002 A 
ATOM     22  C   UNL     1     -26.672  20.962   5.882  0.00  0.00    +0.021 A 
ATOM     23  C   UNL     1     -27.650  21.085   6.859  0.00  0.00    +0.053 A 
ATOM     24 CL   UNL     1     -29.174  20.264   6.659  0.00  0.00    -0.083 Cl
ENDBRANCH   2   1
ENDBRANCH   5   3
BRANCH   7   8
ATOM      8  N   UNL     1     -28.474  19.598  14.722  0.00  0.00    -0.270 N 
ATOM      9  H   UNL     1     -29.177  19.072  15.333  0.00  0.00    +0.156 HD
ATOM     10  C   UNL     1     -27.160  19.492  15.071  0.00  0.00    +0.221 C 
ATOM     14  O   UNL     1     -26.260  20.016  14.417  0.00  0.00    -0.275 OA
BRANCH  10  11
ATOM     11  C   UNL     1     -26.853  18.655  16.294  0.00  0.00    +0.075 C 
ATOM     12  C   UNL     1     -26.201  19.347  17.493  0.00  0.00    +0.013 C 
ATOM     13  C   UNL     1     -25.400  18.347  16.661  0.00  0.00    +0.013 C 
ENDBRANCH  10  11
ENDBRANCH   7   8
TORSDOF 4
