REMARK  Name = 5E8Z
REMARK  7 active torsions:
REMARK  status: ('A' for Active; 'I' for Inactive)
REMARK    1  A    between atoms: C_2  and  N_23
REMARK    2  A    between atoms: C_3  and  C_10
REMARK    3  A    between atoms: C_3  and  C_24
REMARK    4  A    between atoms: C_9  and  N_27
REMARK    5  A    between atoms: C_10  and  O_26
REMARK    6  A    between atoms: C_11  and  C_15
REMARK    7  A    between atoms: C_17  and  C_21
REMARK                            x       y       z     vdW  Elec       q    Type
REMARK                         _______ _______ _______ _____ _____    ______ ____
ROOT
ATOM      6  C   UNL     1       1.257   6.803   2.974  0.00  0.00    +0.090 A 
ATOM      7  N   UNL     1       2.018   7.211   4.004  0.00  0.00    -0.237 NA
ATOM      8  C   UNL     1       3.327   7.462   3.794  0.00  0.00    +0.166 A 
ATOM     25  C   UNL     1       3.905   7.276   2.498  0.00  0.00    +0.147 A 
ATOM     26  N   UNL     1       5.192   7.512   2.244  0.00  0.00    -0.341 N 
ATOM     27  H   UNL     1       5.829   7.858   2.953  0.00  0.00    +0.144 HD
ATOM     28  H   UNL     1       5.582   7.349   1.321  0.00  0.00    +0.144 HD
ATOM     29  N   UNL     1       3.137   6.835   1.471  0.00  0.00    -0.236 NA
ATOM     30  C   UNL     1       1.836   6.617   1.704  0.00  0.00    +0.141 A 
ENDROOT
BRANCH   6   5
ATOM      1  C   UNL     1      -2.062   6.597   4.788  0.00  0.00    +0.004 A 
ATOM      2  C   UNL     1      -2.838   5.847   3.919  0.00  0.00    -0.045 A 
ATOM      3  C   UNL     1      -2.292   5.492   2.701  0.00  0.00    +0.004 A 
ATOM      4  C   UNL     1      -0.986   5.820   2.378  0.00  0.00    +0.010 A 
ATOM      5  C   UNL     1      -0.177   6.532   3.265  0.00  0.00    +0.002 A 
ATOM     35  C   UNL     1      -0.762   6.947   4.463  0.00  0.00    +0.010 A 
BRANCH   2  31
ATOM     31  C   UNL     1      -4.190   5.312   4.348  0.00  0.00    +0.063 C 
BRANCH  31  32
ATOM     32  C   UNL     1      -5.303   6.318   4.124  0.00  0.00    +0.160 C 
BRANCH  32  33
ATOM     33  O   UNL     1      -6.563   5.757   4.507  0.00  0.00    -0.395 OA
ATOM     34  H   UNL     1      -6.773   5.044   3.850  0.00  0.00    +0.209 HD
ENDBRANCH  32  33
ENDBRANCH  31  32
ENDBRANCH   2  31
ENDBRANCH   6   5
BRANCH   8   9
ATOM      9  C   UNL     1       4.093   7.967   4.990  0.00  0.00    +0.270 C 
ATOM     10  N   UNL     1       3.383   8.029   6.129  0.00  0.00    -0.277 N 
ATOM     11  H   UNL     1       2.387   7.858   6.041  0.00  0.00    +0.155 HD
ATOM     24  O   UNL     1       5.272   8.271   4.901  0.00  0.00    -0.268 OA
BRANCH  10  12
ATOM     12  C   UNL     1       3.795   8.359   7.439  0.00  0.00    +0.073 A 
ATOM     13  C   UNL     1       2.837   8.315   8.468  0.00  0.00    +0.054 A 
ATOM     20  C   UNL     1       3.178   8.792   9.733  0.00  0.00    +0.044 A 
ATOM     21  C   UNL     1       4.464   9.246   9.938  0.00  0.00    +0.112 A 
ATOM     22  N   UNL     1       5.415   9.233   9.004  0.00  0.00    -0.261 NA
ATOM     23  C   UNL     1       5.076   8.795   7.787  0.00  0.00    +0.136 A 
BRANCH  13  14
ATOM     14  N   UNL     1       1.607   7.664   8.246  0.00  0.00    -0.324 N 
ATOM     15  C   UNL     1       0.428   8.128   8.981  0.00  0.00    +0.133 C 
ATOM     16  C   UNL     1      -0.804   7.525   8.370  0.00  0.00    +0.178 C 
ATOM     17  O   UNL     1      -0.740   6.117   8.381  0.00  0.00    -0.377 OA
ATOM     18  C   UNL     1       0.384   5.661   7.633  0.00  0.00    +0.178 C 
ATOM     19  C   UNL     1       1.674   6.202   8.188  0.00  0.00    +0.133 C 
ENDBRANCH  13  14
ENDBRANCH  10  12
ENDBRANCH   8   9
TORSDOF 7
