REMARK  Name = 6D2I
REMARK  5 active torsions:
REMARK  status: ('A' for Active; 'I' for Inactive)
REMARK    1  A    between atoms: N3_3  and  C4_4
REMARK    2  A    between atoms: N7_7  and  C8_8
REMARK    3  A    between atoms: C13_12  and  C14_13
REMARK    4  A    between atoms: C19_18  and  C20_19
REMARK    5  A    between atoms: C20_19  and  N21_20
REMARK                            x       y       z     vdW  Elec       q    Type
REMARK                         _______ _______ _______ _____ _____    ______ ____
ROOT
ATOM      6  C   UNL     1     -15.560   9.761 159.852  0.00  0.00    +0.200 A 
ATOM      7  N   UNL     1     -15.435  10.477 160.900  0.00  0.00    -0.600 NA
ATOM      8  C   UNL     1     -16.362  11.257 161.302  0.00  0.00    +0.200 A 
ATOM      9  C   UNL     1     -16.552  12.135 162.345  0.00  0.00    -0.130 A 
ATOM     10  C   UNL     1     -17.743  12.852 162.465  0.00  0.00    +0.000 A 
ATOM     18  C   UNL     1     -18.762  12.639 161.503  0.00  0.00    -0.130 A 
ATOM     19  C   UNL     1     -18.585  11.741 160.416  0.00  0.00    -0.130 A 
ATOM     20  C   UNL     1     -17.377  11.040 160.311  0.00  0.00    +0.200 A 
ATOM     21  N   UNL     1     -16.800  10.003 159.323  0.00  0.00    -0.300 NA
ENDROOT
BRANCH   6   5
ATOM      4  C   UNL     1     -14.639   8.128 157.996  0.00  0.00    -0.050 A 
ATOM      5  C   UNL     1     -14.522   8.777 159.267  0.00  0.00    +0.150 A 
ATOM     22  N   UNL     1     -13.361   8.351 159.857  0.00  0.00    -0.400 NA
ATOM     23  N   UNL     1     -12.729   7.451 158.972  0.00  0.00    -0.100 NA
ATOM     24  C   UNL     1     -13.540   7.325 157.824  0.00  0.00    +0.000 A 
BRANCH   4   3
ATOM      1  O   UNL     1     -15.345   6.590 155.605  0.00  0.00    -0.550 OA
ATOM      2  C   UNL     1     -16.037   7.513 155.895  0.00  0.00    +0.550 C 
ATOM      3  N   UNL     1     -15.760   8.341 157.073  0.00  0.00    -0.350 NA
ATOM     25  N   UNL     1     -17.201   7.859 155.076  0.00  0.00    -0.550 NA
BRANCH  25  26
ATOM     26  C   UNL     1     -18.025   9.008 155.473  0.00  0.00    +0.150 C 
ATOM     27  C   UNL     1     -19.094   8.721 156.545  0.00  0.00    -0.100 C 
ATOM     28  C   UNL     1     -19.512   8.938 155.090  0.00  0.00    -0.100 C 
ENDBRANCH  25  26
ENDBRANCH   4   3
ENDBRANCH   6   5
BRANCH  10  11
ATOM     11  C   UNL     1     -17.928  13.826 163.670  0.00  0.00    +0.100 C 
BRANCH  11  12
ATOM     12  N   UNL     1     -18.257  15.208 163.322  0.00  0.00    -0.600 NA
ATOM     13  C   UNL     1     -17.527  15.674 162.128  0.00  0.00    +0.100 C 
ATOM     14  C   UNL     1     -17.775  17.218 161.922  0.00  0.00    +0.080 C 
ATOM     15  O   UNL     1     -18.619  17.764 162.913  0.00  0.00    -0.360 OA
ATOM     16  C   UNL     1     -18.134  17.511 164.185  0.00  0.00    +0.080 C 
ATOM     17  C   UNL     1     -17.902  16.040 164.450  0.00  0.00    +0.100 C 
ENDBRANCH  11  12
ENDBRANCH  10  11
TORSDOF 5
