REMARK  Name = 22L
REMARK  1 active torsions:
REMARK  status: ('A' for Active; 'I' for Inactive)
REMARK    1  A    between atoms: C7_4  and  C4_10
REMARK                            x       y       z     vdW  Elec       q    Type
REMARK                         _______ _______ _______ _____ _____    ______ ____
ROOT
ATOM      6  C   UNL     1     -30.187   5.958 -36.954  0.00  0.00    +0.013 A 
ATOM      7  C   UNL     1     -29.519   4.721 -36.892  0.00  0.00    +0.082 A 
ATOM      8  C   UNL     1     -28.756   4.148 -35.812  0.00  0.00    +0.283 A 
ATOM      9  O   UNL     1     -28.393   4.722 -34.790  0.00  0.00    -0.265 OA
ATOM     10  N   UNL     1     -28.303   2.889 -36.073  0.00  0.00    -0.186 NA
ATOM     11  C   UNL     1     -28.477   2.231 -37.240  0.00  0.00    +0.202 A 
ATOM     12  N   UNL     1     -29.135   2.689 -38.282  0.00  0.00    -0.217 NA
ATOM     13  C   UNL     1     -29.656   3.980 -38.042  0.00  0.00    +0.117 A 
ATOM     14  S   UNL     1     -30.639   4.802 -39.210  0.00  0.00    -0.067 S 
ATOM     15  C   UNL     1     -30.781   6.124 -38.161  0.00  0.00    +0.037 A 
ENDROOT
BRANCH   6   4
ATOM      1  C   UNL     1     -30.477   9.062 -34.059  0.00  0.00    +0.000 A 
ATOM      2  C   UNL     1     -30.675   7.749 -33.676  0.00  0.00    +0.000 A 
ATOM      3  C   UNL     1     -30.589   6.732 -34.610  0.00  0.00    +0.000 A 
ATOM      4  C   UNL     1     -30.282   7.021 -35.938  0.00  0.00    +0.001 A 
ATOM      5  C   UNL     1     -30.077   8.341 -36.304  0.00  0.00    +0.000 A 
ATOM     16  C   UNL     1     -30.180   9.357 -35.375  0.00  0.00    +0.000 A 
ENDBRANCH   6   4
TORSDOF 1
