REMARK  Name = 5AUZ
REMARK  4 active torsions:
REMARK  status: ('A' for Active; 'I' for Inactive)
REMARK    1  A    between atoms: C_2  and  O_3
REMARK    2  A    between atoms: C_5  and  O_6
REMARK    3  A    between atoms: C_10  and  C_14
REMARK    4  A    between atoms: C_17  and  O_18
REMARK                            x       y       z     vdW  Elec       q    Type
REMARK                         _______ _______ _______ _____ _____    ______ ____
ROOT
ATOM      1  C   UNL     1     -21.171  -0.615 -12.361  0.00  0.00    +0.092 A 
ATOM      2  C   UNL     1     -21.841   0.519 -11.911  0.00  0.00    +0.145 A 
ATOM      3  O   UNL     1     -23.026   0.893 -12.485  0.00  0.00    -0.462 OA
ATOM      4  C   UNL     1     -23.661   1.986 -11.977  0.00  0.00    +0.208 C 
ATOM      5  C   UNL     1     -23.167   2.769 -10.939  0.00  0.00    +0.064 C 
ATOM     14  C   UNL     1     -21.944   2.415 -10.369  0.00  0.00    +0.204 C 
ATOM     15  O   UNL     1     -21.438   3.038  -9.428  0.00  0.00    -0.286 OA
ATOM     16  C   UNL     1     -21.303   1.286 -10.874  0.00  0.00    +0.106 A 
ATOM     17  C   UNL     1     -20.100   0.879 -10.298  0.00  0.00    +0.135 A 
ATOM     20  C   UNL     1     -19.420  -0.251 -10.739  0.00  0.00    +0.091 A 
ATOM     21  C   UNL     1     -19.965  -0.997 -11.782  0.00  0.00    +0.124 A 
ENDROOT
BRANCH   5   6
ATOM      6  C   UNL     1     -24.006   3.802 -10.515  0.00  0.00    -0.011 A 
ATOM      7  C   UNL     1     -24.867   4.361 -11.448  0.00  0.00    +0.012 A 
ATOM      8  C   UNL     1     -25.757   5.361 -11.085  0.00  0.00    +0.046 A 
ATOM      9  C   UNL     1     -25.816   5.768  -9.753  0.00  0.00    +0.117 A 
ATOM     12  C   UNL     1     -24.977   5.196  -8.804  0.00  0.00    +0.046 A 
ATOM     13  C   UNL     1     -24.078   4.205  -9.182  0.00  0.00    +0.012 A 
BRANCH   9  10
ATOM     10  O   UNL     1     -26.686   6.739  -9.395  0.00  0.00    -0.507 OA
ATOM     11  H   UNL     1     -27.346   6.368  -8.668  0.00  0.00    +0.292 HD
ENDBRANCH   9  10
ENDBRANCH   5   6
BRANCH  17  18
ATOM     18  O   UNL     1     -19.627   1.662  -9.291  0.00  0.00    -0.506 OA
ATOM     19  H   UNL     1     -19.535   1.090  -8.415  0.00  0.00    +0.292 HD
ENDBRANCH  17  18
BRANCH  21  22
ATOM     22  O   UNL     1     -19.332  -2.110 -12.244  0.00  0.00    -0.506 OA
ATOM     23  H   UNL     1     -19.957  -2.945 -12.122  0.00  0.00    +0.292 HD
ENDBRANCH  21  22
TORSDOF 4
