REMARK  Name = 3heg_ligand
REMARK  7 active torsions:
REMARK  status: ('A' for Active; 'I' for Inactive)
REMARK    1  A    between atoms: C2_2  and  N12_26
REMARK    2  A    between atoms: C16_6  and  N14_27
REMARK    3  A    between atoms: C19_9  and  O22_12
REMARK    4  A    between atoms: O22_12  and  C23_29
REMARK    5  A    between atoms: C27_15  and  C29_31
REMARK    6  A    between atoms: N30_17  and  C31_18
REMARK    7  A    between atoms: C6_20  and  C7_21
REMARK                            x       y       z     vdW  Elec       q    Type
REMARK                         _______ _______ _______ _____ _____    ______ ____
ROOT
ATOM     18  C   UNL     1       2.338   2.378  22.900  0.00  0.00    +0.058 A 
ATOM     19  C   UNL     1       3.692   2.044  22.967  0.00  0.00    +0.000 A 
ATOM     20  C   UNL     1       4.382   1.594  21.851  0.00  0.00    +0.012 A 
ATOM     21  C   UNL     1       3.707   1.491  20.634  0.00  0.00    +0.105 A 
ATOM     34  C   UNL     1       2.333   1.822  20.527  0.00  0.00    +0.012 A 
ATOM     35  C   UNL     1       1.656   2.271  21.665  0.00  0.00    +0.000 A 
ENDROOT
BRANCH  18  16
ATOM     12  N   UNL     1      -0.022   3.487  25.264  0.00  0.00    -0.209 N 
ATOM     13  H   UNL     1       0.609   4.214  25.600  0.00  0.00    +0.227 HD
ATOM     14  C   UNL     1       0.448   2.704  24.285  0.00  0.00    +0.315 C 
ATOM     15  O   UNL     1      -0.262   1.946  23.616  0.00  0.00    -0.381 OA
ATOM     16  N   UNL     1       1.748   2.809  24.051  0.00  0.00    -0.220 N 
ATOM     17  H   UNL     1       2.337   3.233  24.768  0.00  0.00    +0.223 HD
BRANCH  12  11
ATOM      1  C   UNL     1      -1.978   2.259  25.948  0.00  0.00    +0.058 A 
ATOM      2  C   UNL     1      -3.219   2.265  26.584  0.00  0.00    +0.046 A 
ATOM      7  C   UNL     1      -3.710   3.535  27.168  0.00  0.00    +0.059 A 
ATOM      8 CL   UNL     1      -5.276   3.599  28.042  0.00  0.00    -0.054 Cl
ATOM      9  C   UNL     1      -2.920   4.660  27.100  0.00  0.00    +0.038 A 
ATOM     10  C   UNL     1      -1.698   4.591  26.452  0.00  0.00    +0.065 A 
ATOM     11  C   UNL     1      -1.228   3.428  25.857  0.00  0.00    +0.096 A 
BRANCH   2   3
ATOM      3  C   UNL     1      -4.050   0.997  26.698  0.00  0.00    +0.372 C 
ATOM      4  F   UNL     1      -4.225   0.649  27.928  0.00  0.00    -0.222 F 
ATOM      5  F   UNL     1      -3.480   0.001  26.122  0.00  0.00    -0.222 F 
ATOM      6  F   UNL     1      -5.238   1.142  26.211  0.00  0.00    -0.222 F 
ENDBRANCH   2   3
ENDBRANCH  12  11
ENDBRANCH  18  16
BRANCH  21  22
ATOM     22  O   UNL     1       4.464   1.088  19.562  0.00  0.00    -0.256 OA
BRANCH  22  23
ATOM     23  C   UNL     1       4.155   0.236  18.558  0.00  0.00    +0.138 A 
ATOM     24  C   UNL     1       4.328   0.623  17.229  0.00  0.00    +0.088 A 
ATOM     25  C   UNL     1       4.041  -0.309  16.236  0.00  0.00    +0.112 A 
ATOM     31  N   UNL     1       3.581  -1.537  16.578  0.00  0.00    -0.292 NA
ATOM     32  C   UNL     1       3.417  -1.928  17.863  0.00  0.00    +0.086 A 
ATOM     33  C   UNL     1       3.713  -1.029  18.888  0.00  0.00    +0.070 A 
BRANCH  25  26
ATOM     26  C   UNL     1       4.131   0.000  14.762  0.00  0.00    +0.221 C 
ATOM     27  O   UNL     1       4.155   1.173  14.391  0.00  0.00    -0.379 OA
ATOM     28  N   UNL     1       4.101  -1.034  13.892  0.00  0.00    -0.287 N 
ATOM     29  H   UNL     1       4.683  -1.853  14.069  0.00  0.00    +0.184 HD
ATOM     30  C   UNL     1       3.253  -1.004  12.705  0.00  0.00    +0.164 C 
ENDBRANCH  25  26
ENDBRANCH  22  23
ENDBRANCH  21  22
TORSDOF 6
