REMARK  Name = 3r9h_ligand
REMARK  6 active torsions:
REMARK  status: ('A' for Active; 'I' for Inactive)
REMARK    1  A    between atoms: C1_1  and  C6_6
REMARK    2  A    between atoms: C2_2  and  N7_7
REMARK    3  A    between atoms: N8_8  and  C13_13
REMARK    4  A    between atoms: C10_10  and  S16_16
REMARK    5  A    between atoms: S16_16  and  N18_18
REMARK    6  A    between atoms: N20_20  and  C24_24
REMARK                            x       y       z     vdW  Elec       q    Type
REMARK                         _______ _______ _______ _____ _____    ______ ____
ROOT
ATOM      1  C   UNL     1     -66.916  -8.965 -49.982  0.00  0.00    +0.112 A 
ATOM     14  S   UNL     1     -65.905  -9.130 -48.554  0.00  0.00    +0.011 S 
ATOM     15  C   UNL     1     -64.906 -10.245 -49.446  0.00  0.00    +0.203 A 
ATOM     16  N   UNL     1     -63.765 -10.806 -48.943  0.00  0.00    -0.233 N 
ATOM     17  H   UNL     1     -63.339 -11.478 -49.597  0.00  0.00    +0.224 HD
ATOM     30  N   UNL     1     -65.323 -10.474 -50.679  0.00  0.00    -0.273 NA
ATOM     31  C   UNL     1     -66.465  -9.747 -51.002  0.00  0.00    +0.085 A 
ENDROOT
BRANCH  16  18
ATOM     18  C   UNL     1     -63.071 -10.694 -47.812  0.00  0.00    +0.070 A 
ATOM     19  C   UNL     1     -63.223  -9.523 -46.973  0.00  0.00    +0.019 A 
ATOM     20  C   UNL     1     -62.429  -9.362 -45.821  0.00  0.00    +0.016 A 
ATOM     21  C   UNL     1     -61.478 -10.366 -45.504  0.00  0.00    +0.097 A 
ATOM     28  C   UNL     1     -61.317 -11.543 -46.314  0.00  0.00    +0.016 A 
ATOM     29  C   UNL     1     -62.115 -11.702 -47.467  0.00  0.00    +0.019 A 
BRANCH  21  22
ATOM     22  S   UNL     1     -60.426 -10.142 -44.123  0.00  0.00    +0.061 S 
ATOM     23  O   UNL     1     -60.118 -11.469 -43.556  0.00  0.00    -0.152 OA
ATOM     27  O   UNL     1     -59.338  -9.312 -44.645  0.00  0.00    -0.152 OA
BRANCH  22  24
ATOM     24  N   UNL     1     -61.297  -9.230 -42.957  0.00  0.00    -0.262 NA
ATOM     25  H   UNL     1     -62.233  -8.937 -43.149  0.00  0.00    +0.163 HD
ATOM     26  H   UNL     1     -60.868  -8.992 -42.086  0.00  0.00    +0.163 HD
ENDBRANCH  22  24
ENDBRANCH  21  22
ENDBRANCH  16  18
BRANCH   1   2
ATOM      2  C   UNL     1     -68.055  -8.033 -49.926  0.00  0.00    +0.201 C 
ATOM      3  N   UNL     1     -68.335  -7.515 -48.720  0.00  0.00    -0.241 N 
ATOM      4  H   UNL     1     -67.770  -7.855 -47.968  0.00  0.00    +0.221 HD
ATOM     13  O   UNL     1     -68.646  -7.739 -50.968  0.00  0.00    -0.404 OA
BRANCH   3   5
ATOM      5  C   UNL     1     -69.318  -6.553 -48.354  0.00  0.00    +0.133 A 
ATOM      6  C   UNL     1     -68.892  -5.351 -47.699  0.00  0.00    +0.150 A 
ATOM      7  F   UNL     1     -67.566  -5.151 -47.442  0.00  0.00    -0.195 F 
ATOM      8  C   UNL     1     -69.847  -4.359 -47.314  0.00  0.00    +0.007 A 
ATOM      9  C   UNL     1     -71.241  -4.560 -47.587  0.00  0.00    -0.034 A 
ATOM     10  C   UNL     1     -71.684  -5.754 -48.242  0.00  0.00    +0.007 A 
ATOM     11  C   UNL     1     -70.732  -6.758 -48.629  0.00  0.00    +0.150 A 
ATOM     12  F   UNL     1     -71.179  -7.884 -49.248  0.00  0.00    -0.195 F 
ENDBRANCH   3   5
ENDBRANCH   1   2
BRANCH  31  32
ATOM     32  N   UNL     1     -67.038  -9.838 -52.268  0.00  0.00    -0.333 N 
ATOM     33  H   UNL     1     -67.876  -9.284 -52.495  0.00  0.00    +0.174 HD
ATOM     34  H   UNL     1     -66.624 -10.460 -52.977  0.00  0.00    +0.174 HD
ENDBRANCH  31  32
TORSDOF 6
