REMARK  Name = A29
REMARK  2 active torsions:
REMARK  status: ('A' for Active; 'I' for Inactive)
REMARK    1  A    between atoms: C8_1  and  C7_4
REMARK    2  A    between atoms: C7_4  and  C1_5
REMARK                            x       y       z     vdW  Elec       q    Type
REMARK                         _______ _______ _______ _____ _____    ______ ____
ROOT
ATOM      4  C   UNL     1      20.036  25.750  28.451  0.00  0.00    +0.049 A 
ATOM      5  C   UNL     1      18.941  26.342  29.074  0.00  0.00    +0.045 A 
ATOM      6  C   UNL     1      17.646  25.815  28.994  0.00  0.00    +0.196 A 
ATOM      7  O   UNL     1      16.620  26.446  29.650  0.00  0.00    -0.287 OA
ATOM      8  C   UNL     1      17.395  24.655  28.273  0.00  0.00    +0.042 A 
ATOM      9  C   UNL     1      18.471  24.042  27.625  0.00  0.00    +0.003 A 
ATOM     10  C   UNL     1      19.779  24.589  27.711  0.00  0.00    +0.004 A 
ENDROOT
BRANCH   4   2
ATOM      2  C   UNL     1      21.389  26.454  28.555  0.00  0.00    +0.275 C 
ATOM      3  O   UNL     1      21.437  27.451  29.266  0.00  0.00    -0.280 OA
BRANCH   2   1
ATOM      1  C   UNL     1      22.684  26.061  27.796  0.00  0.00    +0.426 C 
ATOM     11  O   UNL     1      23.717  26.810  27.899  0.00  0.00    -0.237 OA
ATOM     12  O   UNL     1      22.677  25.067  27.047  0.00  0.00    -0.237 OA
ENDBRANCH   2   1
ENDBRANCH   4   2
TORSDOF 2
