REMARK  Name = 3CS9
REMARK  8 active torsions:
REMARK  status: ('A' for Active; 'I' for Inactive)
REMARK    1  A    between atoms: C_2  and  C_20
REMARK    2  A    between atoms: N_3  and  C_4
REMARK    3  A    between atoms: C_6  and  N_7
REMARK    4  A    between atoms: C_9  and  C_10
REMARK    5  A    between atoms: C_15  and  C_16
REMARK    6  A    between atoms: C_23  and  C_24
REMARK    7  A    between atoms: C_25  and  N_27
REMARK    8  A    between atoms: C_32  and  C_34
REMARK                            x       y       z     vdW  Elec       q    Type
REMARK                         _______ _______ _______ _____ _____    ______ ____
ROOT
ATOM      3  C   UNL     1      27.868   1.587  53.051  0.00  0.00    +0.039 A 
ATOM      4  C   UNL     1      28.813   0.924  52.312  0.00  0.00    +0.036 A 
ATOM      5  C   UNL     1      29.501  -0.198  52.791  0.00  0.00    +0.037 A 
ATOM     20  C   UNL     1      29.214  -0.711  54.055  0.00  0.00    -0.029 A 
ATOM     21  C   UNL     1      29.954  -1.917  54.616  0.00  0.00    +0.045 C 
ATOM     22  C   UNL     1      28.205  -0.100  54.782  0.00  0.00    +0.006 A 
ATOM     23  C   UNL     1      27.514   1.002  54.276  0.00  0.00    +0.013 A 
ENDROOT
BRANCH   5   6
ATOM      6  N   UNL     1      30.620  -0.693  52.109  0.00  0.00    -0.283 N 
ATOM      7  H   UNL     1      30.537  -1.569  51.500  0.00  0.00    +0.155 HD
ATOM      8  C   UNL     1      31.845  -0.034  52.230  0.00  0.00    +0.220 A 
ATOM      9  N   UNL     1      32.708  -0.604  51.350  0.00  0.00    -0.214 NA
ATOM     10  C   UNL     1      33.936  -0.081  51.256  0.00  0.00    +0.077 A 
ATOM     17  C   UNL     1      34.307   0.971  52.017  0.00  0.00    +0.048 A 
ATOM     18  C   UNL     1      33.414   1.482  52.879  0.00  0.00    +0.116 A 
ATOM     19  N   UNL     1      32.157   1.011  52.986  0.00  0.00    -0.223 NA
BRANCH  10  11
ATOM     11  C   UNL     1      34.853  -0.762  50.305  0.00  0.00    +0.019 A 
ATOM     12  C   UNL     1      34.400  -1.844  49.525  0.00  0.00    +0.120 A 
ATOM     13  N   UNL     1      35.168  -2.477  48.629  0.00  0.00    -0.263 NA
ATOM     14  C   UNL     1      36.444  -2.075  48.511  0.00  0.00    +0.111 A 
ATOM     15  C   UNL     1      36.988  -1.004  49.219  0.00  0.00    +0.020 A 
ATOM     16  C   UNL     1      36.184  -0.346  50.141  0.00  0.00    +0.013 A 
ENDBRANCH  10  11
ENDBRANCH   5   6
BRANCH   3   2
ATOM      1  O   UNL     1      27.437   2.895  51.243  0.00  0.00    -0.270 OA
ATOM      2  C   UNL     1      27.116   2.668  52.384  0.00  0.00    +0.248 C 
ATOM     24  N   UNL     1      26.013   3.098  53.015  0.00  0.00    -0.281 N 
ATOM     25  H   UNL     1      25.807   2.675  53.976  0.00  0.00    +0.155 HD
BRANCH  24  26
ATOM     26  C   UNL     1      25.114   4.042  52.535  0.00  0.00    +0.036 A 
ATOM     27  C   UNL     1      24.886   4.176  51.148  0.00  0.00    +0.035 A 
ATOM     28  C   UNL     1      23.985   5.169  50.668  0.00  0.00    +0.059 A 
ATOM     33  C   UNL     1      23.242   5.922  51.580  0.00  0.00    +0.038 A 
ATOM     34  C   UNL     1      23.418   5.765  52.951  0.00  0.00    +0.050 A 
ATOM     41  C   UNL     1      24.318   4.806  53.424  0.00  0.00    +0.049 A 
BRANCH  34  35
ATOM     35  N   UNL     1      22.656   6.556  53.824  0.00  0.00    -0.305 N 
ATOM     36  C   UNL     1      22.011   7.689  53.522  0.00  0.00    +0.204 A 
ATOM     37  N   UNL     1      21.346   8.174  54.542  0.00  0.00    -0.241 NA
ATOM     38  C   UNL     1      21.497   7.306  55.567  0.00  0.00    +0.056 A 
ATOM     39  C   UNL     1      20.880   7.493  56.932  0.00  0.00    +0.067 C 
ATOM     40  C   UNL     1      22.314   6.313  55.153  0.00  0.00    +0.115 A 
ENDBRANCH  34  35
BRANCH  28  29
ATOM     29  C   UNL     1      23.808   5.330  49.193  0.00  0.00    +0.417 C 
ATOM     30  F   UNL     1      24.849   5.967  48.618  0.00  0.00    -0.166 F 
ATOM     31  F   UNL     1      22.644   5.904  48.912  0.00  0.00    -0.166 F 
ATOM     32  F   UNL     1      23.725   4.177  48.500  0.00  0.00    -0.166 F 
ENDBRANCH  28  29
ENDBRANCH  24  26
ENDBRANCH   3   2
TORSDOF 6
