REMARK  Name = 1q5k_ligand
REMARK  5 active torsions:
REMARK  status: ('A' for Active; 'I' for Inactive)
REMARK    1  A    between atoms: C5_5  and  N8_8
REMARK    2  A    between atoms: N9_9  and  C13_13
REMARK    3  A    between atoms: C13_13  and  C14_14
REMARK    4  A    between atoms: C19_19  and  O20_20
REMARK    5  A    between atoms: O20_20  and  C21_21
REMARK                            x       y       z     vdW  Elec       q    Type
REMARK                         _______ _______ _______ _____ _____    ______ ____
ROOT
ATOM      1  C   UNL     1      22.489  23.571   6.756  0.00  0.00    +0.443 A 
ATOM      2  N   UNL     1      23.817  23.186   6.822  0.00  0.00    -0.067 N 
ATOM      3  H   UNL     1      24.186  22.618   6.087  0.00  0.00    +0.368 HD
ATOM      4  C   UNL     1      24.641  23.545   7.840  0.00  0.00    +0.404 C 
ATOM      5  O   UNL     1      24.236  24.233   8.780  0.00  0.00    -0.331 OA
ATOM      6  N   UNL     1      25.933  23.123   7.783  0.00  0.00    -0.235 N 
ATOM      7  H   UNL     1      26.225  22.568   7.004  0.00  0.00    +0.191 HD
ATOM     17  N   UNL     1      21.634  23.380   5.773  0.00  0.00    -0.043 NA
ATOM     18  C   UNL     1      20.405  23.824   5.860  0.00  0.00    +0.416 A 
ATOM     19  C   UNL     1      20.034  24.485   6.987  0.00  0.00    +0.350 A 
ATOM     23  S   UNL     1      21.537  24.434   7.929  0.00  0.00    +0.271 S 
ENDROOT
BRANCH  19  20
ATOM     20  N   UNL     1      18.749  25.091   7.353  0.00  0.00    -0.068 N 
ATOM     21  O   UNL     1      18.481  25.265   8.527  0.00  0.00    -0.425 OA
ATOM     22  O   UNL     1      17.962  25.435   6.481  0.00  0.00    -0.425 OA
ENDBRANCH  19  20
BRANCH   6   8
ATOM      8  C   UNL     1      26.918  23.453   8.827  0.00  0.00    +0.195 C 
BRANCH   8   9
ATOM      9  C   UNL     1      26.936  22.361   9.865  0.00  0.00    -0.032 A 
ATOM     10  C   UNL     1      27.062  22.701  11.227  0.00  0.00    -0.014 A 
ATOM     11  C   UNL     1      27.076  21.691  12.207  0.00  0.00    +0.013 A 
ATOM     12  C   UNL     1      26.964  20.324  11.825  0.00  0.00    +0.084 A 
ATOM     15  C   UNL     1      26.836  19.985  10.450  0.00  0.00    +0.013 A 
ATOM     16  C   UNL     1      26.823  21.002   9.475  0.00  0.00    -0.014 A 
BRANCH  12  13
ATOM     13  O   UNL     1      26.971  19.338  12.779  0.00  0.00    -0.326 OA
ATOM     14  C   UNL     1      28.334  18.943  13.022  0.00  0.00    +0.230 C 
ENDBRANCH  12  13
ENDBRANCH   8   9
ENDBRANCH   6   8
TORSDOF 4
