REMARK  Name = 5O12
REMARK  4 active torsions:
REMARK  status: ('A' for Active; 'I' for Inactive)
REMARK    1  A    between atoms: N_5  and  C_6
REMARK    2  A    between atoms: C_6  and  C_7
REMARK    3  A    between atoms: C_13  and  C_14
REMARK    4  A    between atoms: C_14  and  C_15
REMARK                            x       y       z     vdW  Elec       q    Type
REMARK                         _______ _______ _______ _____ _____    ______ ____
ROOT
ATOM      1  O   UNL     1      70.639  53.378  -3.674  0.00  0.00    -0.272 OA
ATOM      2  C   UNL     1      70.369  53.194  -2.474  0.00  0.00    +0.257 C 
ATOM      3  C   UNL     1      70.659  51.877  -1.954  0.00  0.00    +0.129 C 
ATOM     15  S   UNL     1      70.212  51.933  -0.263  0.00  0.00    -0.075 S 
ATOM     16  C   UNL     1      69.663  53.558  -0.405  0.00  0.00    +0.148 C 
ATOM     17  N   UNL     1      69.103  54.168   0.654  0.00  0.00    -0.321 N 
ATOM     18  H   UNL     1      69.155  53.686   1.608  0.00  0.00    +0.148 HD
ATOM     25  N   UNL     1      69.797  54.100  -1.657  0.00  0.00    -0.158 NA
ENDROOT
BRANCH   3   4
ATOM      4  C   UNL     1      71.256  50.842  -2.795  0.00  0.00    +0.064 C 
BRANCH   4   5
ATOM      5  C   UNL     1      71.581  49.498  -2.357  0.00  0.00    -0.045 A 
ATOM      6  C   UNL     1      71.506  49.139  -1.039  0.00  0.00    +0.013 A 
ATOM      7  C   UNL     1      71.832  47.855  -0.685  0.00  0.00    +0.001 A 
ATOM      8  C   UNL     1      71.809  47.421   0.654  0.00  0.00    +0.011 A 
ATOM      9  C   UNL     1      72.168  46.088   0.955  0.00  0.00    +0.020 A 
ATOM     10  C   UNL     1      72.548  45.222  -0.081  0.00  0.00    +0.111 A 
ATOM     11  N   UNL     1      72.585  45.626  -1.385  0.00  0.00    -0.255 NA
ATOM     12  C   UNL     1      72.258  46.910  -1.738  0.00  0.00    +0.071 A 
ATOM     13  C   UNL     1      72.314  47.338  -3.046  0.00  0.00    +0.028 A 
ATOM     14  C   UNL     1      71.974  48.625  -3.351  0.00  0.00    +0.006 A 
ENDBRANCH   4   5
ENDBRANCH   3   4
BRANCH  17  19
ATOM     19  C   UNL     1      68.428  55.456   0.561  0.00  0.00    +0.145 C 
BRANCH  19  20
ATOM     20  C   UNL     1      67.056  55.242  -0.005  0.00  0.00    +0.007 A 
ATOM     21  S   UNL     1      66.249  56.625  -0.645  0.00  0.00    -0.100 S 
ATOM     22  C   UNL     1      64.825  55.749  -1.095  0.00  0.00    +0.045 A 
ATOM     23  C   UNL     1      65.007  54.406  -0.750  0.00  0.00    +0.008 A 
ATOM     24  C   UNL     1      66.256  54.132  -0.147  0.00  0.00    +0.013 A 
ENDBRANCH  19  20
ENDBRANCH  17  19
TORSDOF 4
