REMARK  Name = 4ps8_ligand
REMARK  6 active torsions:
REMARK  status: ('A' for Active; 'I' for Inactive)
REMARK    1  A    between atoms: C1_1  and  C2_2
REMARK    2  A    between atoms: C10_10  and  C14_14
REMARK    3  A    between atoms: C16_16  and  O22_22
REMARK    4  A    between atoms: C17_17  and  O20_20
REMARK    5  A    between atoms: O20_20  and  C21_21
REMARK    6  A    between atoms: O22_22  and  C23_23
REMARK                            x       y       z     vdW  Elec       q    Type
REMARK                         _______ _______ _______ _____ _____    ______ ____
ROOT
ATOM      1  C   UNL     1      14.162  62.842  23.667  0.00  0.00    +0.177 C 
ATOM      2  C   UNL     1      15.610  62.852  23.304  0.00  0.00    +0.215 C 
ATOM      3  N   UNL     1      16.413  61.923  23.896  0.00  0.00    -0.189 N 
ATOM      4  H   UNL     1      15.983  61.328  24.575  0.00  0.00    +0.245 HD
ATOM      5  C   UNL     1      17.770  61.714  23.655  0.00  0.00    +0.212 A 
ATOM      6  S   UNL     1      18.721  62.641  22.493  0.00  0.00    +0.030 S 
ATOM      7  C   UNL     1      20.127  61.646  22.818  0.00  0.00    +0.048 A 
ATOM      8  C   UNL     1      21.411  61.712  22.275  0.00  0.00    +0.009 A 
ATOM      9  C   UNL     1      22.379  60.819  22.703  0.00  0.00    -0.033 A 
ATOM     20  C   UNL     1      22.033  59.846  23.659  0.00  0.00    -0.014 A 
ATOM     21  C   UNL     1      20.779  59.777  24.183  0.00  0.00    -0.010 A 
ATOM     22  C   UNL     1      19.769  60.684  23.782  0.00  0.00    +0.008 A 
ATOM     23  N   UNL     1      18.485  60.776  24.193  0.00  0.00    -0.308 NA
ATOM     24  O   UNL     1      15.980  63.708  22.517  0.00  0.00    -0.379 OA
ENDROOT
BRANCH   9  10
ATOM     10  C   UNL     1      23.729  60.817  22.089  0.00  0.00    -0.018 A 
ATOM     11  C   UNL     1      24.864  60.261  22.703  0.00  0.00    +0.063 A 
ATOM     12  N   UNL     1      26.037  60.231  22.074  0.00  0.00    -0.284 NA
ATOM     13  C   UNL     1      26.194  60.695  20.827  0.00  0.00    +0.195 A 
ATOM     16  C   UNL     1      25.083  61.244  20.137  0.00  0.00    +0.148 A 
ATOM     19  C   UNL     1      23.842  61.277  20.766  0.00  0.00    +0.044 A 
BRANCH  13  14
ATOM     14  O   UNL     1      27.432  60.648  20.240  0.00  0.00    -0.307 OA
ATOM     15  C   UNL     1      28.136  59.406  20.255  0.00  0.00    +0.234 C 
ENDBRANCH  13  14
BRANCH  16  17
ATOM     17  O   UNL     1      25.175  61.716  18.864  0.00  0.00    -0.317 OA
ATOM     18  C   UNL     1      25.148  63.123  18.624  0.00  0.00    +0.231 C 
ENDBRANCH  16  17
ENDBRANCH   9  10
TORSDOF 3
