REMARK  Name = 5NTT
REMARK  13 active torsions:
REMARK  status: ('A' for Active; 'I' for Inactive)
REMARK    1  A    between atoms: N_5  and  C_11
REMARK    2  A    between atoms: C_7  and  C_8
REMARK    3  A    between atoms: N_9  and  C_40
REMARK    4  A    between atoms: N_18  and  C_19
REMARK    5  A    between atoms: C_20  and  O_25
REMARK    6  A    between atoms: C_22  and  C_26
REMARK    7  A    between atoms: O_25  and  C_36
REMARK    8  A    between atoms: N_27  and  C_29
REMARK    9  A    between atoms: N_32  and  C_35
REMARK   10  A    between atoms: C_41  and  C_48
REMARK   11  A    between atoms: C_45  and  C_46
REMARK   12  A    between atoms: C_46  and  C_47
REMARK   13  A    between atoms: C_48  and  C_49
REMARK                            x       y       z     vdW  Elec       q    Type
REMARK                         _______ _______ _______ _____ _____    ______ ____
ROOT
ATOM      1  C   UNL     1       1.717 -14.348 -20.275  0.00  0.00    +0.044 C 
ATOM      2  C   UNL     1       1.817 -14.146 -18.794  0.00  0.00    +0.012 A 
ATOM      3  C   UNL     1       2.374 -14.924 -17.780  0.00  0.00    +0.151 A 
ATOM     18  N   UNL     1       2.207 -14.343 -16.581  0.00  0.00    -0.166 NA
ATOM     19  N   UNL     1       1.527 -13.186 -16.826  0.00  0.00    -0.264 N 
ATOM     20  C   UNL     1       1.193 -12.318 -15.698  0.00  0.00    +0.173 C 
ATOM     21  C   UNL     1       1.271 -13.050 -18.170  0.00  0.00    +0.091 A 
ATOM     22  C   UNL     1       0.640 -12.005 -18.851  0.00  0.00    +0.097 A 
ATOM     23  N   UNL     1       0.078 -10.989 -18.185  0.00  0.00    -0.212 NA
ATOM     24  C   UNL     1      -0.490  -9.997 -18.889  0.00  0.00    +0.220 A 
ATOM     25  N   UNL     1      -1.073  -9.021 -18.152  0.00  0.00    -0.281 N 
ATOM     26  H   UNL     1      -1.194  -8.081 -18.648  0.00  0.00    +0.155 HD
ATOM     49  N   UNL     1      -0.517  -9.928 -20.233  0.00  0.00    -0.222 NA
ATOM     50  C   UNL     1       0.065 -10.915 -20.910  0.00  0.00    +0.120 A 
ATOM     51  C   UNL     1       0.671 -11.986 -20.257  0.00  0.00    -0.001 A 
ATOM     52  C   UNL     1       1.344 -13.085 -21.030  0.00  0.00    +0.043 C 
ENDROOT
BRANCH  25  27
ATOM     27  C   UNL     1      -1.544  -9.069 -16.819  0.00  0.00    +0.076 A 
ATOM     28  C   UNL     1      -1.969 -10.283 -16.268  0.00  0.00    +0.028 A 
ATOM     29  C   UNL     1      -2.423 -10.325 -14.971  0.00  0.00    +0.015 A 
ATOM     30  C   UNL     1      -2.469  -9.168 -14.203  0.00  0.00    +0.040 A 
ATOM     42  C   UNL     1      -2.050  -7.959 -14.757  0.00  0.00    +0.060 A 
ATOM     43  C   UNL     1      -1.580  -7.892 -16.055  0.00  0.00    +0.152 A 
BRANCH  30  31
ATOM     31  C   UNL     1      -2.980  -9.287 -12.800  0.00  0.00    +0.244 C 
ATOM     32  O   UNL     1      -3.437 -10.360 -12.406  0.00  0.00    -0.270 OA
ATOM     33  N   UNL     1      -2.919  -8.162 -12.006  0.00  0.00    -0.308 N 
ATOM     34  H   UNL     1      -2.336  -7.329 -12.339  0.00  0.00    +0.149 HD
BRANCH  33  35
ATOM     35  C   UNL     1      -3.623  -8.063 -10.722  0.00  0.00    +0.076 C 
ATOM     36  C   UNL     1      -4.774  -7.067 -10.800  0.00  0.00    +0.037 C 
ATOM     37  C   UNL     1      -5.476  -6.957  -9.455  0.00  0.00    +0.086 C 
ATOM     38  N   UNL     1      -4.533  -6.577  -8.392  0.00  0.00    -0.305 NA
ATOM     39  C   UNL     1      -5.228  -6.418  -7.091  0.00  0.00    +0.105 C 
ATOM     40  C   UNL     1      -3.428  -7.544  -8.288  0.00  0.00    +0.086 C 
ATOM     41  C   UNL     1      -2.672  -7.663  -9.603  0.00  0.00    +0.037 C 
ENDBRANCH  33  35
ENDBRANCH  30  31
BRANCH  43  44
ATOM     44  O   UNL     1      -1.140  -6.748 -16.716  0.00  0.00    -0.404 OA
BRANCH  44  45
ATOM     45  C   UNL     1      -0.932  -5.606 -16.046  0.00  0.00    +0.575 C 
ATOM     46  F   UNL     1      -0.298  -4.749 -16.820  0.00  0.00    -0.133 F 
ATOM     47  F   UNL     1      -2.053  -5.012 -15.679  0.00  0.00    -0.133 F 
ATOM     48  F   UNL     1      -0.194  -5.761 -14.960  0.00  0.00    -0.133 F 
ENDBRANCH  44  45
ENDBRANCH  43  44
ENDBRANCH  25  27
BRANCH   3   4
ATOM      4  C   UNL     1       3.098 -16.208 -17.897  0.00  0.00    +0.269 C 
ATOM      5  O   UNL     1       3.289 -16.721 -18.996  0.00  0.00    -0.268 OA
ATOM      6  N   UNL     1       3.541 -16.729 -16.730  0.00  0.00    -0.280 N 
ATOM      7  H   UNL     1       3.384 -16.136 -15.853  0.00  0.00    +0.155 HD
BRANCH   6   8
ATOM      8  C   UNL     1       4.195 -17.982 -16.541  0.00  0.00    +0.040 A 
ATOM      9  C   UNL     1       3.439 -19.164 -16.595  0.00  0.00    -0.026 A 
ATOM     12  C   UNL     1       4.116 -20.372 -16.407  0.00  0.00    +0.005 A 
ATOM     13  C   UNL     1       5.472 -20.410 -16.168  0.00  0.00    +0.001 A 
ATOM     14  C   UNL     1       6.192 -19.236 -16.119  0.00  0.00    +0.005 A 
ATOM     15  C   UNL     1       5.576 -17.994 -16.297  0.00  0.00    -0.026 A 
BRANCH   9  10
ATOM     10  C   UNL     1       1.946 -19.186 -16.851  0.00  0.00    +0.033 C 
ATOM     11  C   UNL     1       1.069 -19.117 -15.620  0.00  0.00    +0.009 C 
ENDBRANCH   9  10
BRANCH  15  16
ATOM     16  C   UNL     1       6.408 -16.729 -16.248  0.00  0.00    +0.033 C 
ATOM     17  C   UNL     1       6.379 -15.980 -14.938  0.00  0.00    +0.009 C 
ENDBRANCH  15  16
ENDBRANCH   6   8
ENDBRANCH   3   4
TORSDOF 9
