REMARK  Name = 6HX1
REMARK  4 active torsions:
REMARK  status: ('A' for Active; 'I' for Inactive)
REMARK    1  A    between atoms: C4_3  and  N5_13
REMARK    2  A    between atoms: C6_4  and  C7_5
REMARK    3  A    between atoms: C6_4  and  N5_13
REMARK    4  A    between atoms: C13_17  and  C14_18
REMARK                            x       y       z     vdW  Elec       q    Type
REMARK                         _______ _______ _______ _____ _____    ______ ____
ROOT
ATOM      1  C   UNL     1      -5.887  -7.677  28.167  0.00  0.00    +0.580 A 
ATOM      2  N   UNL     1      -6.134  -8.897  28.543  0.00  0.00    -0.380 NA
ATOM      3  N   UNL     1      -5.592  -9.986  27.862  0.00  0.00    -0.100 N 
ATOM      4  C   UNL     1      -5.700 -11.334  28.064  0.00  0.00    +0.050 A 
ATOM     14  C   UNL     1      -4.941 -11.929  27.078  0.00  0.00    -0.050 A 
ATOM     15  N   UNL     1      -4.409 -10.978  26.319  0.00  0.00    -0.300 NA
ATOM     16  C   UNL     1      -4.784  -9.796  26.771  0.00  0.00    +0.300 A 
ATOM     17  C   UNL     1      -4.500  -8.476  26.337  0.00  0.00    +0.050 A 
ATOM     23 CL   UNL     1      -6.613  -6.401  29.089  0.00  0.00    -0.200 Cl
ATOM     24  C   UNL     1      -5.068  -7.422  27.051  0.00  0.00    -0.130 A 
ENDROOT
BRANCH   4   5
ATOM      5  C   UNL     1      -6.485 -12.015  29.123  0.00  0.00    +0.000 A 
ATOM      6  C   UNL     1      -6.957 -13.329  28.885  0.00  0.00    -0.130 A 
ATOM      7  C   UNL     1      -7.687 -14.016  29.801  0.00  0.00    -0.130 A 
ATOM      8  C   UNL     1      -8.000 -13.417  31.042  0.00  0.00    +0.200 A 
ATOM      9  N   UNL     1      -8.660 -13.806  32.113  0.00  0.00    -0.500 NA
ATOM     10  N   UNL     1      -8.647 -12.770  33.049  0.00  0.00    -0.100 NA
ATOM     11  C   UNL     1      -7.972 -11.718  32.573  0.00  0.00    -0.050 A 
ATOM     12  C   UNL     1      -7.529 -12.046  31.308  0.00  0.00    +0.050 A 
ATOM     13  C   UNL     1      -6.776 -11.374  30.321  0.00  0.00    -0.130 A 
ENDBRANCH   4   5
BRANCH  17  18
ATOM     18  N   UNL     1      -3.682  -8.324  25.213  0.00  0.00    -0.400 NA
BRANCH  18  19
ATOM     19  C   UNL     1      -3.168  -7.030  24.742  0.00  0.00    +0.000 C 
BRANCH  19  20
ATOM     20  C   UNL     1      -4.254  -6.261  23.987  0.00  0.00    -0.050 C 
ATOM     21  C   UNL     1      -4.944  -6.953  22.811  0.00  0.00    -0.100 C 
ATOM     22  C   UNL     1      -3.963  -5.801  22.555  0.00  0.00    -0.100 C 
ENDBRANCH  19  20
ENDBRANCH  18  19
ENDBRANCH  17  18
TORSDOF 4
