REMARK  Name = 08K
REMARK  1 active torsions:
REMARK  status: ('A' for Active; 'I' for Inactive)
REMARK    1  A    between atoms: CAO_5  and  CAQ_6
REMARK                            x       y       z     vdW  Elec       q    Type
REMARK                         _______ _______ _______ _____ _____    ______ ____
ROOT
ATOM      1 CL   UNL     1      25.614  14.426   0.445  0.00  0.00    -0.082 Cl
ATOM      2  C   UNL     1      27.214  15.117   0.230  0.00  0.00    +0.058 A 
ATOM      3  C   UNL     1      27.878  15.563   1.351  0.00  0.00    +0.013 A 
ATOM      4  C   UNL     1      29.136  16.096   1.184  0.00  0.00    +0.019 A 
ATOM      5  C   UNL     1      29.739  16.256  -0.079  0.00  0.00    +0.069 A 
ATOM      6  N   UNL     1      31.008  16.811  -0.147  0.00  0.00    -0.262 N 
ATOM      7  C   UNL     1      31.496  17.851   0.557  0.00  0.00    +0.149 A 
ATOM      8  C   UNL     1      30.803  18.745   1.525  0.00  0.00    +0.074 C 
ATOM      9  N   UNL     1      32.776  17.996   0.241  0.00  0.00    -0.132 NA
ATOM     10  N   UNL     1      33.125  16.975  -0.661  0.00  0.00    -0.109 NA
ATOM     11  C   UNL     1      31.991  16.274  -0.835  0.00  0.00    +0.254 A 
ATOM     12  N   UNL     1      31.858  15.323  -1.794  0.00  0.00    -0.217 N 
ATOM     13  C   UNL     1      32.982  14.496  -2.169  0.00  0.00    +0.157 C 
ATOM     14  N   UNL     1      30.858  15.687  -2.793  0.00  0.00    -0.167 NA
ATOM     15  C   UNL     1      29.591  15.844  -2.573  0.00  0.00    +0.102 A 
ATOM     22  C   UNL     1      29.024  15.761  -1.189  0.00  0.00    +0.036 A 
ATOM     23  C   UNL     1      27.753  15.183  -1.031  0.00  0.00    +0.014 A 
ENDROOT
BRANCH  15  16
ATOM     16  C   UNL     1      28.692  16.306  -3.688  0.00  0.00    +0.019 A 
ATOM     17  C   UNL     1      27.529  17.056  -3.449  0.00  0.00    +0.002 A 
ATOM     18  C   UNL     1      26.760  17.544  -4.509  0.00  0.00    +0.000 A 
ATOM     19  C   UNL     1      27.156  17.300  -5.819  0.00  0.00    +0.000 A 
ATOM     20  C   UNL     1      28.339  16.589  -6.052  0.00  0.00    +0.000 A 
ATOM     21  C   UNL     1      29.088  16.089  -5.008  0.00  0.00    +0.002 A 
ENDBRANCH  15  16
TORSDOF 1
