REMARK  Name = 5NKC
REMARK  12 active torsions:
REMARK  status: ('A' for Active; 'I' for Inactive)
REMARK    1  A    between atoms: C_2  and  C_4
REMARK    2  A    between atoms: C_9  and  C_11
REMARK    3  A    between atoms: C_16  and  N_17
REMARK    4  A    between atoms: C_22  and  C_23
REMARK    5  A    between atoms: N_25  and  C_26
REMARK    6  A    between atoms: C_32  and  C_33
REMARK    7  A    between atoms: C_35  and  C_37
REMARK    8  A    between atoms: C_42  and  C_44
REMARK    9  A    between atoms: C_49  and  N_50
REMARK   10  A    between atoms: C_55  and  C_56
REMARK   11  A    between atoms: N_58  and  C_59
REMARK   12  A    between atoms: C_65  and  C_66
REMARK                            x       y       z     vdW  Elec       q    Type
REMARK                         _______ _______ _______ _____ _____    ______ ____
ROOT
ATOM     13  N   UNL     1     -86.829 -12.671   5.162  0.00  0.00    -0.294 N 
ATOM     14  H   UNL     1     -87.038 -12.294   4.183  0.00  0.00    +0.154 HD
ATOM     15  C   UNL     1     -87.859 -13.172   5.863  0.00  0.00    +0.163 A 
ATOM     16  N   UNL     1     -89.120 -13.109   5.386  0.00  0.00    -0.232 NA
ATOM     17  C   UNL     1     -90.066 -13.673   6.196  0.00  0.00    +0.133 A 
ATOM     18  C   UNL     1     -89.590 -14.191   7.348  0.00  0.00    +0.095 A 
ATOM     31  S   UNL     1     -87.889 -13.955   7.385  0.00  0.00    -0.048 S 
ENDROOT
BRANCH  13  12
ATOM      8  C   UNL     1     -83.250 -12.172   4.893  0.00  0.00    +0.039 A 
ATOM      9  C   UNL     1     -82.844 -12.325   6.219  0.00  0.00    +0.013 A 
ATOM     10  C   UNL     1     -83.767 -12.616   7.215  0.00  0.00    +0.003 A 
ATOM     11  C   UNL     1     -85.121 -12.740   6.909  0.00  0.00    +0.023 A 
ATOM     12  C   UNL     1     -85.548 -12.604   5.594  0.00  0.00    +0.033 A 
ATOM     32  C   UNL     1     -84.611 -12.312   4.605  0.00  0.00    +0.036 A 
BRANCH   8   7
ATOM      3  C   UNL     1     -80.421 -14.619   2.471  0.00  0.00    +0.121 C 
ATOM      4  C   UNL     1     -79.527 -13.423   2.281  0.00  0.00    +0.035 C 
ATOM      5  C   UNL     1     -80.555 -12.309   2.246  0.00  0.00    +0.109 C 
ATOM      6  N   UNL     1     -81.503 -12.723   3.327  0.00  0.00    -0.297 N 
ATOM      7  C   UNL     1     -82.337 -11.829   3.870  0.00  0.00    +0.247 C 
ATOM     33  O   UNL     1     -82.308 -10.664   3.459  0.00  0.00    -0.270 OA
ATOM     34  C   UNL     1     -81.274 -14.153   3.633  0.00  0.00    +0.123 C 
BRANCH   3   2
ATOM      1  O   UNL     1     -82.452 -15.293   1.514  0.00  0.00    -0.246 OA
ATOM      2  C   UNL     1     -81.326 -14.811   1.267  0.00  0.00    +0.361 C 
ATOM     35  O   UNL     1     -80.882 -14.487   0.138  0.00  0.00    -0.246 OA
ENDBRANCH   3   2
ENDBRANCH   8   7
ENDBRANCH  13  12
BRANCH  18  19
ATOM     19  C   UNL     1     -90.244 -14.826   8.373  0.00  0.00    +0.256 C 
ATOM     20  N   UNL     1     -91.538 -15.207   8.223  0.00  0.00    -0.280 N 
ATOM     21  H   UNL     1     -92.043 -15.007   7.301  0.00  0.00    +0.155 HD
ATOM     30  O   UNL     1     -89.608 -15.070   9.396  0.00  0.00    -0.269 OA
BRANCH  20  22
ATOM     22  C   UNL     1     -92.214 -15.852   9.247  0.00  0.00    +0.055 A 
ATOM     23  C   UNL     1     -92.438 -17.228   9.177  0.00  0.00    -0.028 A 
ATOM     24  C   UNL     1     -91.948 -17.956   8.088  0.00  0.00    +0.046 C 
ATOM     25  C   UNL     1     -93.150 -17.899  10.179  0.00  0.00    +0.005 A 
ATOM     26  C   UNL     1     -93.646 -17.165  11.259  0.00  0.00    +0.002 A 
ATOM     27  C   UNL     1     -93.434 -15.784  11.331  0.00  0.00    +0.022 A 
ATOM     28  C   UNL     1     -92.725 -15.124  10.322  0.00  0.00    +0.062 A 
ATOM     29 CL   UNL     1     -92.486 -13.410  10.431  0.00  0.00    -0.082 Cl
ENDBRANCH  20  22
ENDBRANCH  18  19
TORSDOF 5
