REMARK  Name = 4KS8
REMARK  12 active torsions:
REMARK  status: ('A' for Active; 'I' for Inactive)
REMARK    1  A    between atoms: C_1  and  C_13
REMARK    2  A    between atoms: C_5  and  C_11
REMARK    3  A    between atoms: C_8  and  C_12
REMARK    4  A    between atoms: C_10  and  C_16
REMARK    5  A    between atoms: C_12  and  C_15
REMARK    6  A    between atoms: N_19  and  C_23
REMARK    7  A    between atoms: C_23  and  C_24
REMARK    8  A    between atoms: C_24  and  N_25
REMARK    9  A    between atoms: N_25  and  C_26
REMARK   10  A    between atoms: N_25  and  C_27
REMARK   11  A    between atoms: C_26  and  C_29
REMARK   12  A    between atoms: C_27  and  C_28
REMARK                            x       y       z     vdW  Elec       q    Type
REMARK                         _______ _______ _______ _____ _____    ______ ____
ROOT
ATOM      1  C   UNL     1       0.995   8.812  25.864  0.00  0.00    +0.066 C 
ATOM      2  C   UNL     1       2.496   8.700  25.949  0.00  0.00    +0.051 A 
ATOM      3  N   UNL     1       3.334   9.638  26.448  0.00  0.00    -0.255 NA
ATOM      4  C   UNL     1       4.607   9.187  26.377  0.00  0.00    +0.050 A 
ATOM     17  C   UNL     1       4.733   7.842  25.769  0.00  0.00    -0.015 A 
ATOM     18  C   UNL     1       5.999   7.051  25.535  0.00  0.00    +0.046 C 
ATOM     19  C   UNL     1       3.309   7.537  25.497  0.00  0.00    +0.062 A 
ENDROOT
BRANCH  19  20
ATOM     20  C   UNL     1       2.749   6.294  24.891  0.00  0.00    +0.246 C 
ATOM     21  O   UNL     1       1.703   5.853  25.335  0.00  0.00    -0.270 OA
ATOM     22  N   UNL     1       3.403   5.687  23.902  0.00  0.00    -0.310 N 
ATOM     23  H   UNL     1       4.293   6.140  23.519  0.00  0.00    +0.149 HD
BRANCH  22  24
ATOM     24  C   UNL     1       2.953   4.435  23.326  0.00  0.00    +0.120 C 
BRANCH  24  25
ATOM     25  C   UNL     1       1.685   4.608  22.487  0.00  0.00    +0.103 C 
BRANCH  25  26
ATOM     26  N   UNL     1       1.290   3.369  21.772  0.00  0.00    -0.301 NA
BRANCH  26  27
ATOM     27  C   UNL     1       0.997   2.268  22.725  0.00  0.00    +0.081 C 
ATOM     28  C   UNL     1       0.073   1.237  22.103  0.00  0.00    +0.020 C 
ENDBRANCH  26  27
BRANCH  26  29
ATOM     29  C   UNL     1       2.226   3.045  20.656  0.00  0.00    +0.081 C 
ATOM     30  C   UNL     1       3.228   1.934  20.926  0.00  0.00    +0.020 C 
ENDBRANCH  26  29
ENDBRANCH  25  26
ENDBRANCH  24  25
ENDBRANCH  22  24
ENDBRANCH  19  20
BRANCH   4   5
ATOM      5  C   UNL     1       5.766   9.989  26.848  0.00  0.00    +0.096 C 
BRANCH   5   6
ATOM      6  C   UNL     1       5.692  11.302  27.536  0.00  0.00    +0.031 C 
ATOM      7  C   UNL     1       4.613  12.208  27.955  0.00  0.00    +0.265 C 
ATOM      8  O   UNL     1       3.378  11.966  27.766  0.00  0.00    -0.268 OA
ATOM      9  N   UNL     1       5.057  13.328  28.549  0.00  0.00    -0.176 NA
ATOM     10  C   UNL     1       6.417  13.276  28.591  0.00  0.00    +0.065 A 
ATOM     11  C   UNL     1       7.382  14.147  29.092  0.00  0.00    +0.028 A 
ATOM     12  C   UNL     1       8.739  13.822  28.990  0.00  0.00    +0.040 A 
ATOM     13  C   UNL     1       9.175  12.632  28.405  0.00  0.00    +0.124 A 
ATOM     14  F   UNL     1      10.491  12.387  28.338  0.00  0.00    -0.205 F 
ATOM     15  C   UNL     1       8.264  11.710  27.884  0.00  0.00    +0.048 A 
ATOM     16  C   UNL     1       6.909  12.009  27.969  0.00  0.00    +0.009 A 
ENDBRANCH   5   6
ENDBRANCH   4   5
TORSDOF 8
