REMARK  Name = 4EK8
REMARK  5 active torsions:
REMARK  status: ('A' for Active; 'I' for Inactive)
REMARK    1  A    between atoms: C_2  and  C_5
REMARK    2  A    between atoms: N_9  and  C_14
REMARK    3  A    between atoms: N_11  and  C_16
REMARK    4  A    between atoms: C_20  and  C_23
REMARK    5  A    between atoms: C_21  and  C_22
REMARK                            x       y       z     vdW  Elec       q    Type
REMARK                         _______ _______ _______ _____ _____    ______ ____
ROOT
ATOM      8  C   UNL     1       0.155  -5.135 -27.038  0.00  0.00    +0.084 A 
ATOM      9  C   UNL     1      -0.032  -3.782 -27.376  0.00  0.00    +0.049 A 
ATOM     10  C   UNL     1       0.858  -3.242 -28.346  0.00  0.00    +0.116 A 
ATOM     11  N   UNL     1       1.854  -3.964 -28.946  0.00  0.00    -0.223 NA
ATOM     12  C   UNL     1       1.968  -5.307 -28.560  0.00  0.00    +0.220 A 
ATOM     13  N   UNL     1       3.052  -5.957 -29.174  0.00  0.00    -0.283 N 
ATOM     14  H   UNL     1       3.636  -5.378 -29.859  0.00  0.00    +0.155 HD
ATOM     24  N   UNL     1       1.140  -5.917 -27.626  0.00  0.00    -0.214 NA
ENDROOT
BRANCH   8   7
ATOM      1  S   UNL     1       0.039  -7.327 -25.438  0.00  0.00    -0.071 S 
ATOM      2  C   UNL     1      -1.343  -7.520 -24.456  0.00  0.00    +0.076 A 
ATOM      3  C   UNL     1      -1.437  -8.647 -23.485  0.00  0.00    +0.074 C 
ATOM      4  N   UNL     1      -2.302  -6.609 -24.591  0.00  0.00    -0.249 NA
ATOM      5  C   UNL     1      -1.914  -5.663 -25.544  0.00  0.00    +0.055 A 
ATOM      6  C   UNL     1      -2.882  -4.559 -25.731  0.00  0.00    +0.067 C 
ATOM      7  C   UNL     1      -0.673  -5.903 -26.116  0.00  0.00    +0.060 A 
ENDBRANCH   8   7
BRANCH  13  15
ATOM     15  C   UNL     1       3.449  -7.308 -28.975  0.00  0.00    +0.036 A 
ATOM     16  C   UNL     1       4.648  -7.728 -29.636  0.00  0.00    +0.023 A 
ATOM     17  C   UNL     1       5.042  -9.075 -29.576  0.00  0.00    +0.004 A 
ATOM     18  C   UNL     1       4.269 -10.035 -28.869  0.00  0.00    +0.033 A 
ATOM     19  C   UNL     1       3.100  -9.600 -28.210  0.00  0.00    +0.128 A 
ATOM     23  C   UNL     1       2.685  -8.264 -28.240  0.00  0.00    +0.056 A 
BRANCH  19  20
ATOM     20  N   UNL     1       2.240 -10.593 -27.465  0.00  0.00    +0.057 N 
ATOM     21  O   UNL     1       2.756 -11.561 -26.950  0.00  0.00    -0.126 OA
ATOM     22  O   UNL     1       1.045 -10.391 -27.398  0.00  0.00    -0.126 OA
ENDBRANCH  19  20
ENDBRANCH  13  15
TORSDOF 3
