REMARK  Name = 5M4F
REMARK  4 active torsions:
REMARK  status: ('A' for Active; 'I' for Inactive)
REMARK    1  A    between atoms: C_4  and  C_21
REMARK    2  A    between atoms: C_5  and  O_8
REMARK    3  A    between atoms: O_10  and  C_22
REMARK    4  A    between atoms: C_19  and  C_20
REMARK                            x       y       z     vdW  Elec       q    Type
REMARK                         _______ _______ _______ _____ _____    ______ ____
ROOT
ATOM      9  C   UNL     1     -13.015  -6.595 -11.623  0.00  0.00    +0.165 C 
ATOM     10  C   UNL     1     -12.897  -7.707 -12.426  0.00  0.00    +0.168 C 
ATOM     13  C   UNL     1     -13.023  -8.990 -11.832  0.00  0.00    +0.142 C 
ATOM     16  C   UNL     1     -13.233  -9.063 -10.404  0.00  0.00    +0.055 C 
ATOM     17  C   UNL     1     -13.315  -7.931  -9.723  0.00  0.00    +0.132 C 
ATOM     18  C   UNL     1     -13.529  -7.983  -8.338  0.00  0.00    +0.104 C 
ATOM     19  C   UNL     1     -13.678  -9.161  -7.648  0.00  0.00    +0.044 C 
ATOM     20  C   UNL     1     -13.596 -10.313  -8.364  0.00  0.00    +0.073 C 
ATOM     21 CL   UNL     1     -13.700 -11.821  -7.573  0.00  0.00    -0.116 Cl
ATOM     22 CL   UNL     1     -13.613  -6.495  -7.539  0.00  0.00    -0.113 Cl
ATOM     23  C   UNL     1     -13.385 -10.309  -9.736  0.00  0.00    +0.030 C 
ATOM     24  O   UNL     1     -13.216  -6.720 -10.286  0.00  0.00    -0.350 OA
ENDROOT
BRANCH   9   2
ATOM      1  C   UNL     1     -12.359  -4.909 -13.298  0.00  0.00    +0.007 A 
ATOM      2  C   UNL     1     -12.917  -5.199 -12.062  0.00  0.00    -0.010 A 
ATOM      3  C   UNL     1     -13.378  -4.192 -11.237  0.00  0.00    +0.007 A 
ATOM      4  C   UNL     1     -13.271  -2.874 -11.635  0.00  0.00    +0.010 A 
ATOM      5  C   UNL     1     -12.666  -2.607 -12.886  0.00  0.00    -0.003 A 
ATOM     25  C   UNL     1     -12.228  -3.609 -13.694  0.00  0.00    +0.010 A 
BRANCH   5   6
ATOM      6  C   UNL     1     -12.481  -1.206 -13.318  0.00  0.00    +0.072 C 
ATOM      7  O   UNL     1     -13.028  -0.283 -12.659  0.00  0.00    -0.545 OA
ATOM      8  O   UNL     1     -11.662  -0.989 -14.289  0.00  0.00    -0.545 OA
ENDBRANCH   5   6
ENDBRANCH   9   2
BRANCH  10  11
ATOM     11  O   UNL     1     -12.726  -7.687 -13.799  0.00  0.00    -0.379 OA
ATOM     12  H   UNL     1     -13.542  -7.201 -14.247  0.00  0.00    +0.211 HD
ENDBRANCH  10  11
BRANCH  13  14
ATOM     14  O   UNL     1     -12.962 -10.113 -12.586  0.00  0.00    -0.382 OA
ATOM     15  H   UNL     1     -12.169 -10.716 -12.254  0.00  0.00    +0.210 HD
ENDBRANCH  13  14
TORSDOF 4
