REMARK  Name = 6LF
REMARK  8 active torsions:
REMARK  status: ('A' for Active; 'I' for Inactive)
REMARK    1  A    between atoms: CAK_2  and  CAP_7
REMARK    2  A    between atoms: CAK_2  and  OAC_23
REMARK    3  A    between atoms: CAM_4  and  OAC_23
REMARK    4  A    between atoms: CAN_5  and  CAT_11
REMARK    5  A    between atoms: CAT_11  and  CAV_13
REMARK    6  A    between atoms: CAU_12  and  CAV_13
REMARK    7  A    between atoms: CAW_14  and  NAG_20
REMARK    8  A    between atoms: CAW_14  and  CBB_26
REMARK                            x       y       z     vdW  Elec       q    Type
REMARK                         _______ _______ _______ _____ _____    ______ ____
ROOT
ATOM      1  C   UNL     1      71.948  45.515 561.588  0.00  0.00    +0.038 A 
ATOM      2  C   UNL     1      71.643  44.296 562.201  0.00  0.00    +0.104 A 
ATOM      3  N   UNL     1      72.665  43.984 563.015  0.00  0.00    -0.148 NA
ATOM      4  N   UNL     1      73.597  44.919 562.962  0.00  0.00    -0.152 NA
ATOM      5  C   UNL     1      70.434  43.625 561.914  0.00  0.00    +0.024 A 
ATOM      6  C   UNL     1      69.528  44.174 561.011  0.00  0.00    +0.039 A 
ATOM      7  C   UNL     1      69.814  45.401 560.378  0.00  0.00    +0.139 A 
ATOM     19  C   UNL     1      73.257  45.875 562.132  0.00  0.00    +0.082 A 
ATOM     30  C   UNL     1      71.018  46.066 560.671  0.00  0.00    +0.040 A 
ENDROOT
BRANCH   7   8
ATOM      8  O   UNL     1      68.869  45.918 559.466  0.00  0.00    -0.475 OA
BRANCH   8   9
ATOM      9  C   UNL     1      69.170  47.112 558.779  0.00  0.00    +0.190 C 
ATOM     10  C   UNL     1      67.882  47.720 558.223  0.00  0.00    +0.052 C 
BRANCH   9  11
ATOM     11  C   UNL     1      70.159  46.930 557.618  0.00  0.00    +0.041 A 
ATOM     12  C   UNL     1      71.194  47.846 557.465  0.00  0.00    +0.077 A 
ATOM     13 CL   UNL     1      71.372  49.208 558.607  0.00  0.00    -0.081 Cl
ATOM     14  C   UNL     1      72.095  47.698 556.422  0.00  0.00    +0.110 A 
ATOM     15  N   UNL     1      71.983  46.703 555.568  0.00  0.00    -0.241 NA
ATOM     16  C   UNL     1      71.016  45.816 555.674  0.00  0.00    +0.110 A 
ATOM     17  C   UNL     1      70.075  45.893 556.689  0.00  0.00    +0.077 A 
ATOM     18 CL   UNL     1      68.793  44.652 556.764  0.00  0.00    -0.081 Cl
ENDBRANCH   9  11
ENDBRANCH   8   9
ENDBRANCH   7   8
BRANCH  19  20
ATOM     20  C   UNL     1      74.154  47.095 561.876  0.00  0.00    +0.052 C 
BRANCH  20  21
ATOM     21  C   UNL     1      73.718  48.078 560.792  0.00  0.00    +0.036 C 
BRANCH  21  22
ATOM     22  C   UNL     1      74.810  49.100 560.463  0.00  0.00    +0.018 A 
ATOM     23  C   UNL     1      76.062  49.270 561.097  0.00  0.00    +0.117 A 
ATOM     24  N   UNL     1      76.663  50.259 560.481  0.00  0.00    -0.168 NA
ATOM     25  N   UNL     1      75.909  50.745 559.497  0.00  0.00    -0.242 N 
ATOM     29  C   UNL     1      74.779  50.080 559.449  0.00  0.00    +0.093 A 
BRANCH  25  26
ATOM     26  C   UNL     1      76.266  51.849 558.618  0.00  0.00    +0.199 C 
BRANCH  26  27
ATOM     27  C   UNL     1      76.882  51.319 557.327  0.00  0.00    +0.234 C 
ATOM     28  O   UNL     1      76.776  51.947 556.327  0.00  0.00    -0.286 OA
ENDBRANCH  26  27
ENDBRANCH  25  26
ENDBRANCH  21  22
ENDBRANCH  20  21
ENDBRANCH  19  20
TORSDOF 8
