REMARK  Name = 3R7E
REMARK  4 active torsions:
REMARK  status: ('A' for Active; 'I' for Inactive)
REMARK    1  A    between atoms: C_3  and  N_11
REMARK    2  A    between atoms: C_5  and  C_8
REMARK    3  A    between atoms: N_7  and  C_14
REMARK    4  A    between atoms: C_14  and  C_18
REMARK                            x       y       z     vdW  Elec       q    Type
REMARK                         _______ _______ _______ _____ _____    ______ ____
ROOT
ATOM      1  C   UNL     1      65.423  45.170 -46.367  0.00  0.00    +0.085 C 
ATOM      2  C   UNL     1      65.176  45.739 -47.688  0.00  0.00    +0.052 C 
ATOM      3  N   UNL     1      63.953  46.130 -48.073  0.00  0.00    -0.281 NA
ATOM     11  C   UNL     1      66.332  45.859 -48.608  0.00  0.00    +0.060 C 
ATOM     17  C   UNL     1      67.631  45.397 -48.141  0.00  0.00    +0.047 C 
ATOM     18  C   UNL     1      67.845  44.832 -46.828  0.00  0.00    +0.123 C 
ATOM     22  C   UNL     1      66.709  44.735 -45.959  0.00  0.00    +0.012 C 
ENDROOT
BRANCH  11  12
ATOM     12  C   UNL     1      66.231  46.357 -49.915  0.00  0.00    +0.243 C 
ATOM     13  O   UNL     1      65.263  47.234 -50.242  0.00  0.00    -0.270 OA
ATOM     14  N   UNL     1      67.076  45.977 -50.924  0.00  0.00    -0.325 N 
ATOM     15  H   UNL     1      66.956  46.387 -51.905  0.00  0.00    +0.145 HD
ATOM     16  H   UNL     1      67.856  45.270 -50.731  0.00  0.00    +0.145 HD
ENDBRANCH  11  12
BRANCH  18  19
ATOM     19  N   UNL     1      69.072  44.409 -46.437  0.00  0.00    +0.056 N 
ATOM     20  O   UNL     1      69.260  43.932 -45.331  0.00  0.00    -0.126 OA
ATOM     21  O   UNL     1      70.145  44.493 -47.250  0.00  0.00    -0.126 OA
ENDBRANCH  18  19
BRANCH   3   4
ATOM      4  C   UNL     1      62.699  46.064 -47.288  0.00  0.00    +0.198 C 
BRANCH   4   5
ATOM      5  C   UNL     1      62.468  47.273 -46.386  0.00  0.00    +0.081 A 
ATOM      6  N   UNL     1      61.576  47.174 -45.321  0.00  0.00    -0.255 NA
ATOM      7  C   UNL     1      61.317  48.226 -44.462  0.00  0.00    +0.131 A 
ATOM      8  C   UNL     1      61.982  49.453 -44.671  0.00  0.00    +0.130 A 
ATOM      9  N   UNL     1      62.868  49.562 -45.724  0.00  0.00    -0.260 NA
ATOM     10  C   UNL     1      63.133  48.519 -46.587  0.00  0.00    +0.136 A 
ENDBRANCH   4   5
ENDBRANCH   3   4
TORSDOF 4
