REMARK  Name = A6Z
REMARK  3 active torsions:
REMARK  status: ('A' for Active; 'I' for Inactive)
REMARK    1  A    between atoms: C12_1  and  C11_2
REMARK    2  A    between atoms: C11_2  and  N2_15
REMARK    3  A    between atoms: C3_10  and  N1_14
REMARK                            x       y       z     vdW  Elec       q    Type
REMARK                         _______ _______ _______ _____ _____    ______ ____
ROOT
ATOM      4  N   UNL     1     -11.543  11.530 -15.564  0.00  0.00    -0.257 NA
ATOM      5  C   UNL     1     -12.835  12.017 -15.838  0.00  0.00    +0.095 C 
ATOM      6  C   UNL     1     -12.927  13.285 -16.692  0.00  0.00    +0.108 C 
ATOM      7  N   UNL     1     -11.713  13.595 -17.340  0.00  0.00    -0.305 N 
ATOM      8  C   UNL     1     -10.599  12.699 -17.477  0.00  0.00    +0.108 C 
ATOM     16  C   UNL     1     -10.715  11.422 -16.701  0.00  0.00    +0.095 C 
ENDROOT
BRANCH   7   9
ATOM      9  C   UNL     1     -11.474  14.846 -17.956  0.00  0.00    +0.049 A 
ATOM     10  C   UNL     1     -10.016  15.177 -18.198  0.00  0.00    +0.026 A 
ATOM     11  C   UNL     1      -9.667  16.363 -18.801  0.00  0.00    +0.059 A 
ATOM     12 CL   UNL     1      -7.986  16.623 -19.011  0.00  0.00    -0.082 Cl
ATOM     13  C   UNL     1     -10.759  17.357 -19.243  0.00  0.00    +0.012 A 
ATOM     14  C   UNL     1     -12.086  17.053 -19.033  0.00  0.00    +0.002 A 
ATOM     15  C   UNL     1     -12.468  15.723 -18.360  0.00  0.00    +0.015 A 
ENDBRANCH   7   9
BRANCH   4   3
ATOM      3  C   UNL     1     -11.719  10.212 -15.008  0.00  0.00    +0.180 C 
BRANCH   3   1
ATOM      1  C   UNL     1     -11.661  10.388 -13.477  0.00  0.00    +0.091 C 
ATOM      2  N   UNL     1     -11.734  10.477 -12.334  0.00  0.00    -0.194 NA
ENDBRANCH   3   1
ENDBRANCH   4   3
TORSDOF 3
