REMARK  Name = 3uo4_ligand
REMARK  5 active torsions:
REMARK  status: ('A' for Active; 'I' for Inactive)
REMARK    1  A    between atoms: N03_3  and  C07_7
REMARK    2  A    between atoms: N03_3  and  C09_9
REMARK    3  A    between atoms: N04_4  and  C16_16
REMARK    4  A    between atoms: C14_14  and  C15_15
REMARK    5  A    between atoms: C19_19  and  C22_22
REMARK                            x       y       z     vdW  Elec       q    Type
REMARK                         _______ _______ _______ _____ _____    ______ ____
ROOT
ATOM      1  N   UNL     1       3.324  31.813   8.772  0.00  0.00    -0.269 NA
ATOM      2  C   UNL     1       3.394  31.983   7.448  0.00  0.00    +0.196 A 
ATOM      3  N   UNL     1       2.810  33.187   6.925  0.00  0.00    -0.243 N 
ATOM      4  H   UNL     1       2.699  33.972   7.582  0.00  0.00    +0.219 HD
ATOM     14  N   UNL     1       3.992  31.091   6.646  0.00  0.00    -0.234 NA
ATOM     15  C   UNL     1       4.540  29.973   7.167  0.00  0.00    +0.135 A 
ATOM     16  C   UNL     1       4.481  29.757   8.543  0.00  0.00    +0.057 A 
ATOM     31  C   UNL     1       3.855  30.715   9.334  0.00  0.00    +0.086 A 
ENDROOT
BRANCH   3   5
ATOM      5  C   UNL     1       2.367  33.404   5.579  0.00  0.00    +0.068 A 
ATOM      6  C   UNL     1       2.969  32.776   4.497  0.00  0.00    +0.020 A 
ATOM      7  C   UNL     1       2.513  33.028   3.209  0.00  0.00    +0.005 A 
ATOM      8  C   UNL     1       1.461  33.914   3.003  0.00  0.00    -0.002 A 
ATOM     12  C   UNL     1       0.866  34.549   4.084  0.00  0.00    +0.005 A 
ATOM     13  C   UNL     1       1.321  34.293   5.368  0.00  0.00    +0.020 A 
BRANCH   8   9
ATOM      9  C   UNL     1       0.965  34.190   1.622  0.00  0.00    +0.055 C 
ATOM     10  O   UNL     1      -0.157  34.743   1.450  0.00  0.00    -0.564 OA
ATOM     11  O   UNL     1       1.671  33.869   0.629  0.00  0.00    -0.564 OA
ENDBRANCH   8   9
ENDBRANCH   3   5
BRANCH  15  17
ATOM     17  N   UNL     1       5.185  28.991   6.333  0.00  0.00    -0.254 N 
ATOM     18  H   UNL     1       5.571  28.142   6.771  0.00  0.00    +0.218 HD
BRANCH  17  19
ATOM     19  C   UNL     1       5.308  29.156   4.911  0.00  0.00    +0.074 A 
ATOM     20  C   UNL     1       6.560  29.163   4.302  0.00  0.00    +0.007 A 
ATOM     27  C   UNL     1       6.665  29.317   2.926  0.00  0.00    -0.003 A 
ATOM     28  C   UNL     1       5.527  29.462   2.149  0.00  0.00    -0.020 A 
ATOM     29  C   UNL     1       4.283  29.451   2.758  0.00  0.00    -0.012 A 
ATOM     30  C   UNL     1       4.169  29.297   4.132  0.00  0.00    +0.017 A 
BRANCH  20  21
ATOM     21  C   UNL     1       7.810  29.015   5.107  0.00  0.00    -0.022 A 
ATOM     22  C   UNL     1       8.603  30.129   5.345  0.00  0.00    +0.004 A 
ATOM     23  C   UNL     1       9.768  30.010   6.086  0.00  0.00    -0.002 A 
ATOM     24  C   UNL     1      10.140  28.772   6.584  0.00  0.00    -0.003 A 
ATOM     25  C   UNL     1       9.352  27.656   6.346  0.00  0.00    -0.002 A 
ATOM     26  C   UNL     1       8.186  27.776   5.606  0.00  0.00    +0.004 A 
ENDBRANCH  20  21
ENDBRANCH  17  19
ENDBRANCH  15  17
TORSDOF 5
