REMARK  Name = 5otz
REMARK  3 active torsions:
REMARK  status: ('A' for Active; 'I' for Inactive)
REMARK    1  A    between atoms: C12_1  and  C11_7
REMARK    2  A    between atoms: C8_4  and  C7_6
REMARK    3  A    between atoms: C2_14  and  C1_15
REMARK                            x       y       z     vdW  Elec       q    Type
REMARK                         _______ _______ _______ _____ _____    ______ ____
ROOT
ATOM      3  C   UNL     1    -115.885-175.038 308.771  0.00  0.00    -0.031 A 
ATOM      4  C   UNL     1    -115.446-176.320 309.069  0.00  0.00    +0.026 A 
ATOM      5  C   UNL     1    -114.110-176.559 309.323  0.00  0.00    +0.050 A 
ATOM      6 CL   UNL     1    -113.611-178.180 309.675  0.00  0.00    -0.084 Cl
ATOM      7  C   UNL     1    -113.153-175.548 309.296  0.00  0.00    +0.019 A 
ATOM      8  C   UNL     1    -113.615-174.272 308.973  0.00  0.00    +0.050 A 
ATOM      9 CL   UNL     1    -112.494-172.951 308.899  0.00  0.00    -0.084 Cl
ATOM     18  C   UNL     1    -114.946-174.015 308.712  0.00  0.00    +0.026 A 
ENDROOT
BRANCH   7  10
ATOM     10  C   UNL     1    -111.718-175.819 309.625  0.00  0.00    -0.012 A 
ATOM     11  C   UNL     1    -110.806-176.282 308.665  0.00  0.00    -0.040 A 
ATOM     14  C   UNL     1    -109.507-176.598 309.055  0.00  0.00    +0.004 A 
ATOM     15  C   UNL     1    -109.114-176.462 310.373  0.00  0.00    +0.000 A 
ATOM     16  C   UNL     1    -110.004-176.003 311.315  0.00  0.00    +0.001 A 
ATOM     17  C   UNL     1    -111.298-175.677 310.948  0.00  0.00    +0.009 A 
BRANCH  11  12
ATOM     12  C   UNL     1    -111.242-176.456 307.228  0.00  0.00    +0.033 C 
ATOM     13  C   UNL     1    -110.853-175.329 306.314  0.00  0.00    +0.009 C 
ENDBRANCH  11  12
ENDBRANCH   7  10
BRANCH   3   1
ATOM      1  C   UNL     1    -117.348-174.743 308.569  0.00  0.00    +0.113 C 
ATOM      2  N   UNL     1    -117.961-175.738 307.698  0.00  0.00    -0.089 NA
ENDBRANCH   3   1
TORSDOF 3
