REMARK  Name = 6FS
REMARK  11 active torsions:
REMARK  status: ('A' for Active; 'I' for Inactive)
REMARK    1  A    between atoms: C2_2  and  O3_22
REMARK    2  A    between atoms: C3_3  and  C9_25
REMARK    3  A    between atoms: C6_5  and  O1_26
REMARK    4  A    between atoms: C11_9  and  S1_18
REMARK    5  A    between atoms: C12_10  and  S1_18
REMARK    6  A    between atoms: C12_10  and  C18_19
REMARK    7  A    between atoms: C15_13  and  O6_23
REMARK    8  A    between atoms: C16_14  and  N1_30
REMARK    9  A    between atoms: C21_16  and  C20_28
REMARK   10  A    between atoms: C4_27  and  O2_31
REMARK   11  A    between atoms: C20_28  and  N1_30
REMARK                            x       y       z     vdW  Elec       q    Type
REMARK                         _______ _______ _______ _____ _____    ______ ____
ROOT
ATOM     12  S   UNL     1      -5.686 -11.785  -6.751  0.00  0.00    +0.014 S 
ATOM     27  O   UNL     1      -5.900 -13.277  -6.435  0.00  0.00    -0.168 OA
ATOM     28  O   UNL     1      -5.947 -11.557  -8.249  0.00  0.00    -0.168 OA
ENDROOT
BRANCH  12  11
ATOM     10  C   UNL     1      -8.313 -10.977  -6.103  0.00  0.00    +0.026 C 
ATOM     11  C   UNL     1      -6.810 -10.807  -5.837  0.00  0.00    +0.123 C 
BRANCH  10   9
ATOM      1  C   UNL     1     -11.720  -9.891  -5.158  0.00  0.00    +0.074 A 
ATOM      2  C   UNL     1     -11.459  -8.959  -4.157  0.00  0.00    +0.145 A 
ATOM      5  C   UNL     1     -10.134  -8.671  -3.811  0.00  0.00    +0.074 A 
ATOM      6  C   UNL     1      -9.086  -9.326  -4.463  0.00  0.00    +0.145 A 
ATOM      9  C   UNL     1      -9.342 -10.272  -5.457  0.00  0.00    +0.069 A 
ATOM     29  C   UNL     1     -10.661 -10.541  -5.799  0.00  0.00    +0.145 A 
BRANCH   2   3
ATOM      3  O   UNL     1     -12.514  -8.355  -3.518  0.00  0.00    -0.471 OA
ATOM      4  C   UNL     1     -12.073  -7.424  -2.514  0.00  0.00    +0.253 C 
ENDBRANCH   2   3
BRANCH   6   7
ATOM      7  O   UNL     1      -7.779  -9.063  -4.191  0.00  0.00    -0.471 OA
ATOM      8  C   UNL     1      -7.641  -8.083  -3.163  0.00  0.00    +0.253 C 
ENDBRANCH   6   7
BRANCH  29  30
ATOM     30  O   UNL     1     -10.839 -11.459  -6.801  0.00  0.00    -0.471 OA
ATOM     31  C   UNL     1     -12.227 -11.667  -7.086  0.00  0.00    +0.253 C 
ENDBRANCH  29  30
ENDBRANCH  10   9
ENDBRANCH  12  11
BRANCH  12  13
ATOM     13  C   UNL     1      -3.961 -11.291  -6.342  0.00  0.00    +0.182 C 
BRANCH  13  14
ATOM     14  C   UNL     1      -3.654 -10.075  -6.974  0.00  0.00    +0.003 A 
ATOM     15  C   UNL     1      -4.576  -9.020  -7.010  0.00  0.00    +0.001 A 
ATOM     16  C   UNL     1      -4.292  -7.863  -7.735  0.00  0.00    +0.038 A 
ATOM     17  C   UNL     1      -3.089  -7.766  -8.431  0.00  0.00    +0.153 A 
ATOM     18  C   UNL     1      -2.172  -8.799  -8.377  0.00  0.00    +0.100 A 
ATOM     26  C   UNL     1      -2.442  -9.953  -7.649  0.00  0.00    +0.017 A 
BRANCH  17  24
ATOM     24  O   UNL     1      -2.770  -6.721  -9.264  0.00  0.00    -0.470 OA
ATOM     25  C   UNL     1      -3.773  -5.692  -9.265  0.00  0.00    +0.253 C 
ENDBRANCH  17  24
BRANCH  18  19
ATOM     19  N   UNL     1      -1.047  -8.637  -9.070  0.00  0.00    -0.223 NA
BRANCH  19  20
ATOM     20  C   UNL     1       0.011  -9.654  -9.102  0.00  0.00    +0.226 C 
BRANCH  20  21
ATOM     21  C   UNL     1       1.093  -9.196 -10.082  0.00  0.00    +0.386 C 
ATOM     22  O   UNL     1       2.269  -9.532  -9.833  0.00  0.00    -0.244 OA
ATOM     23  O   UNL     1       0.717  -8.516 -11.061  0.00  0.00    -0.244 OA
ENDBRANCH  20  21
ENDBRANCH  19  20
ENDBRANCH  18  19
ENDBRANCH  13  14
ENDBRANCH  12  13
TORSDOF 11
