REMARK  Name = 3pxf_ligand
REMARK  3 active torsions:
REMARK  status: ('A' for Active; 'I' for Inactive)
REMARK    1  A    between atoms: C1_1  and  N_9
REMARK    2  A    between atoms: N_9  and  C11_13
REMARK    3  A    between atoms: S_10  and  C9_11
REMARK                            x       y       z     vdW  Elec       q    Type
REMARK                         _______ _______ _______ _____ _____    ______ ____
ROOT
ATOM      1  C   UNL     1     122.806 133.739  64.752  0.00  0.00    +0.073 A 
ATOM      2  C   UNL     1     121.381 134.111  64.855  0.00  0.00    +0.033 A 
ATOM      3  C   UNL     1     120.846 135.287  65.542  0.00  0.00    +0.059 A 
ATOM      8  C   UNL     1     119.453 135.537  65.567  0.00  0.00    +0.018 A 
ATOM      9  C   UNL     1     118.546 134.670  64.942  0.00  0.00    -0.002 A 
ATOM     10  C   UNL     1     119.011 133.529  64.276  0.00  0.00    +0.000 A 
ATOM     11  C   UNL     1     120.399 133.220  64.213  0.00  0.00    -0.026 A 
ATOM     12  C   UNL     1     120.837 132.057  63.531  0.00  0.00    -0.023 A 
ATOM     13  C   UNL     1     122.196 131.726  63.446  0.00  0.00    -0.019 A 
ATOM     22  C   UNL     1     123.169 132.548  64.039  0.00  0.00    +0.007 A 
ENDROOT
BRANCH   3   4
ATOM      4  S   UNL     1     121.864 136.476  66.395  0.00  0.00    -0.162 S 
ATOM      5  O   UNL     1     120.901 137.633  67.054  0.00  0.00    -0.479 OA
ATOM      6  O   UNL     1     122.548 135.772  67.465  0.00  0.00    -0.479 OA
ATOM      7  O   UNL     1     122.793 137.072  65.461  0.00  0.00    -0.479 OA
ENDBRANCH   3   4
BRANCH   1  14
ATOM     14  N   UNL     1     123.748 134.479  65.289  0.00  0.00    -0.271 N 
ATOM     15  H   UNL     1     123.754 135.474  65.022  0.00  0.00    +0.212 HD
BRANCH  14  16
ATOM     16  C   UNL     1     124.691 134.093  66.135  0.00  0.00    +0.060 A 
ATOM     17  C   UNL     1     125.824 134.940  66.291  0.00  0.00    +0.014 A 
ATOM     18  C   UNL     1     126.872 134.592  67.190  0.00  0.00    -0.013 A 
ATOM     19  C   UNL     1     126.800 133.392  67.949  0.00  0.00    -0.022 A 
ATOM     20  C   UNL     1     125.675 132.527  67.810  0.00  0.00    -0.013 A 
ATOM     21  C   UNL     1     124.623 132.874  66.908  0.00  0.00    +0.014 A 
ENDBRANCH  14  16
ENDBRANCH   1  14
TORSDOF 3
