REMARK  Name = 2r9s_ligand
REMARK  9 active torsions:
REMARK  status: ('A' for Active; 'I' for Inactive)
REMARK    1  A    between atoms: S31_2  and  N24_4
REMARK    2  A    between atoms: S31_2  and  C20_9
REMARK    3  A    between atoms: N24_4  and  C30_5
REMARK    4  A    between atoms: C30_5  and  C01_6
REMARK    5  A    between atoms: C30_5  and  C02_7
REMARK    6  A    between atoms: C30_5  and  C03_8
REMARK    7  A    between atoms: C17_12  and  C18_15
REMARK    8  A    between atoms: C27_22  and  N23_25
REMARK    9  A    between atoms: N23_25  and  C19_26
REMARK                            x       y       z     vdW  Elec       q    Type
REMARK                         _______ _______ _______ _____ _____    ______ ____
ROOT
ATOM      7  C   UNL     1      14.654  15.350  27.394  0.00  0.00    +0.085 C 
ATOM      8  C   UNL     1      13.456  14.464  27.565  0.00  0.00    +0.037 C 
ATOM      9  C   UNL     1      13.556  13.212  28.409  0.00  0.00    +0.088 C 
ATOM     10  C   UNL     1      12.319  12.295  28.587  0.00  0.00    +0.077 C 
ATOM     22  C   UNL     1      12.421  11.026  29.444  0.00  0.00    +0.055 C 
ATOM     23  C   UNL     1      13.756  10.662  30.127  0.00  0.00    +0.011 C 
ATOM     24  C   UNL     1      14.989  11.576  29.950  0.00  0.00    +0.055 C 
ATOM     25  C   UNL     1      14.886  12.848  29.091  0.00  0.00    +0.071 C 
ATOM     26  N   UNL     1      16.082  13.733  28.920  0.00  0.00    +0.231 N 
ATOM     27  H   UNL     1      16.763  13.151  28.432  0.00  0.00    +0.202 HD
ATOM     28  H   UNL     1      16.283  14.074  29.860  0.00  0.00    +0.202 HD
ATOM     29  C   UNL     1      15.982  14.986  28.076  0.00  0.00    +0.147 C 
ENDROOT
BRANCH   7   6
ATOM      3  C   UNL     1      14.352  19.150  24.833  0.00  0.00    +0.101 A 
ATOM      4  C   UNL     1      15.636  18.309  24.812  0.00  0.00    +0.020 A 
ATOM      5  C   UNL     1      15.736  17.044  25.665  0.00  0.00    -0.002 A 
ATOM      6  C   UNL     1      14.553  16.614  26.541  0.00  0.00    -0.035 A 
ATOM     30  C   UNL     1      13.269  17.454  26.562  0.00  0.00    -0.002 A 
ATOM     31  C   UNL     1      13.169  18.721  25.709  0.00  0.00    +0.020 A 
BRANCH   3   2
ATOM      1  O   UNL     1      12.773  20.679  23.037  0.00  0.00    -0.151 OA
ATOM      2  S   UNL     1      14.235  20.654  23.818  0.00  0.00    +0.066 S 
ATOM     38  O   UNL     1      14.365  21.986  24.793  0.00  0.00    -0.151 OA
BRANCH   2  32
ATOM     32  N   UNL     1      15.510  20.662  22.658  0.00  0.00    -0.243 NA
ATOM     33  H   UNL     1      16.198  21.407  22.549  0.00  0.00    +0.168 HD
BRANCH  32  34
ATOM     34  C   UNL     1      15.459  19.431  21.845  0.00  0.00    +0.040 C 
ATOM     35  C   UNL     1      14.415  18.459  22.441  0.00  0.00    +0.032 C 
ATOM     36  C   UNL     1      16.849  18.756  21.837  0.00  0.00    +0.032 C 
ATOM     37  C   UNL     1      15.056  19.791  20.399  0.00  0.00    +0.032 C 
ENDBRANCH  32  34
ENDBRANCH   2  32
ENDBRANCH   3   2
ENDBRANCH   7   6
BRANCH  10  11
ATOM     11  N   UNL     1      11.058  12.635  27.943  0.00  0.00    +0.265 N 
ATOM     12  H   UNL     1      10.442  12.902  28.711  0.00  0.00    +0.207 HD
ATOM     13  H   UNL     1      11.311  13.321  27.232  0.00  0.00    +0.207 HD
BRANCH  11  14
ATOM     14  C   UNL     1      10.317  11.616  27.219  0.00  0.00    +0.141 C 
ATOM     15  C   UNL     1      10.904  10.199  27.069  0.00  0.00    +0.111 C 
ATOM     16  C   UNL     1      10.139   9.147  26.321  0.00  0.00    +0.017 C 
ATOM     17  C   UNL     1       8.805   9.475  25.722  0.00  0.00    +0.051 C 
ATOM     18  C   UNL     1       8.223  10.886  25.872  0.00  0.00    +0.135 C 
ATOM     19  N   UNL     1       8.992  11.942  26.623  0.00  0.00    +0.263 N 
ATOM     20  H   UNL     1       8.401  12.167  27.423  0.00  0.00    +0.207 HD
ATOM     21  H   UNL     1       9.196  12.655  25.923  0.00  0.00    +0.207 HD
ENDBRANCH  11  14
ENDBRANCH  10  11
TORSDOF 6
