REMARK  Name = 3iw8_ligand
REMARK  7 active torsions:
REMARK  status: ('A' for Active; 'I' for Inactive)
REMARK    1  A    between atoms: NAA_1  and  CBB_28
REMARK    2  A    between atoms: CAN_14  and  OAS_19
REMARK    3  A    between atoms: CAN_14  and  CAV_22
REMARK    4  A    between atoms: CAO_15  and  OAS_19
REMARK    5  A    between atoms: CAO_15  and  CBB_28
REMARK    6  A    between atoms: NAQ_17  and  CAX_24
REMARK    7  A    between atoms: CAZ_26  and  CBB_28
REMARK                            x       y       z     vdW  Elec       q    Type
REMARK                         _______ _______ _______ _____ _____    ______ ____
ROOT
ATOM      6  C   UNL     1      21.254   1.191  18.126  0.00  0.00    +0.019 A 
ATOM      7  N   UNL     1      21.272   2.440  17.600  0.00  0.00    -0.312 NA
ATOM      8  C   UNL     1      20.213   3.187  17.938  0.00  0.00    +0.203 A 
ATOM      9  S   UNL     1      19.158   2.210  18.900  0.00  0.00    -0.003 S 
ATOM     10  N   UNL     1      20.007   4.436  17.483  0.00  0.00    -0.174 N 
ATOM     11  H   UNL     1      20.755   4.917  17.027  0.00  0.00    +0.242 HD
ATOM     12  C   UNL     1      18.825   5.053  17.625  0.00  0.00    +0.328 C 
ATOM     13  N   UNL     1      18.681   6.285  17.123  0.00  0.00    -0.215 N 
ATOM     14  H   UNL     1      19.467   6.720  16.684  0.00  0.00    +0.225 HD
ATOM     23  O   UNL     1      17.909   4.511  18.235  0.00  0.00    -0.376 OA
ATOM     24  C   UNL     1      20.177   0.854  18.877  0.00  0.00    +0.031 A 
ENDROOT
BRANCH  13  15
ATOM     15  C   UNL     1      17.516   6.962  17.187  0.00  0.00    +0.064 A 
ATOM     16  C   UNL     1      16.694   7.058  18.321  0.00  0.00    +0.021 A 
ATOM     17  C   UNL     1      15.480   7.759  18.255  0.00  0.00    +0.060 A 
ATOM     18  C   UNL     1      15.062   8.358  17.073  0.00  0.00    +0.130 A 
ATOM     19  C   UNL     1      15.871   8.248  15.942  0.00  0.00    +0.015 A 
ATOM     20  F   UNL     1      13.876   9.033  17.048  0.00  0.00    -0.196 F 
ATOM     21 CL   UNL     1      14.438   7.918  19.624  0.00  0.00    -0.076 Cl
ATOM     22  C   UNL     1      17.083   7.554  15.998  0.00  0.00    +0.007 A 
ENDBRANCH  13  15
BRANCH   6   5
ATOM      5  C   UNL     1      22.424   0.218  17.870  0.00  0.00    +0.128 C 
BRANCH   5   1
ATOM      1  N   UNL     1      22.030  -0.759  16.852  0.00  0.00    +0.233 N 
ATOM      2  H   UNL     1      21.227  -1.276  17.175  0.00  0.00    +0.201 HD
ATOM      3  H   UNL     1      21.799  -0.278  15.997  0.00  0.00    +0.201 HD
ATOM      4  H   UNL     1      22.793  -1.395  16.684  0.00  0.00    +0.201 HD
ENDBRANCH   5   1
BRANCH   5  25
ATOM     25  C   UNL     1      22.862  -0.514  19.160  0.00  0.00    +0.228 C 
BRANCH  25  26
ATOM     26  O   UNL     1      22.752   0.264  20.401  0.00  0.00    -0.360 OA
BRANCH  26  27
ATOM     27  C   UNL     1      24.012   0.887  20.756  0.00  0.00    +0.227 C 
BRANCH  27  28
ATOM     28  C   UNL     1      24.127   2.269  20.832  0.00  0.00    -0.018 A 
ATOM     29  C   UNL     1      25.235   2.827  21.469  0.00  0.00    -0.002 A 
ATOM     30  C   UNL     1      25.339   4.215  21.534  0.00  0.00    -0.009 A 
ATOM     31  C   UNL     1      24.352   5.038  20.976  0.00  0.00    -0.013 A 
ATOM     32  C   UNL     1      23.242   4.481  20.339  0.00  0.00    -0.009 A 
ATOM     33  C   UNL     1      23.141   3.093  20.275  0.00  0.00    -0.002 A 
ENDBRANCH  27  28
ENDBRANCH  26  27
ENDBRANCH  25  26
ENDBRANCH   5  25
ENDBRANCH   6   5
TORSDOF 7
