REMARK  Name = 1W4R
REMARK  12 active torsions:
REMARK  status: ('A' for Active; 'I' for Inactive)
REMARK    1  A    between atoms: P_1  and  O_4
REMARK    2  A    between atoms: P_1  and  O_13
REMARK    3  A    between atoms: O_4  and  P_5
REMARK    4  A    between atoms: P_5  and  O_8
REMARK    5  A    between atoms: O_8  and  P_9
REMARK    6  A    between atoms: O_13  and  C_14
REMARK    7  A    between atoms: C_14  and  C_15
REMARK    8  A    between atoms: C_17  and  O_18
REMARK    9  A    between atoms: C_20  and  N_21
REMARK   10  A    between atoms: C_22  and  O_23
REMARK   11  A    between atoms: C_25  and  O_26
REMARK   12  A    between atoms: C_27  and  C_28
REMARK                            x       y       z     vdW  Elec       q    Type
REMARK                         _______ _______ _______ _____ _____    ______ ____
ROOT
ATOM      4  C   UNL     1      57.119  74.302   2.296  0.00  0.00    +0.180 C 
ATOM      5  C   UNL     1      57.867  74.162   3.519  0.00  0.00    +0.155 C 
ATOM      6  C   UNL     1      58.518  75.405   3.706  0.00  0.00    +0.143 C 
ATOM      7  C   UNL     1      58.827  75.900   2.403  0.00  0.00    +0.415 C 
ATOM     21  O   UNL     1      57.774  75.365   1.620  0.00  0.00    -0.311 OA
ENDROOT
BRANCH   7   8
ATOM      8  N   UNL     1      58.910  77.270   2.233  0.00  0.00    -0.120 N 
ATOM      9  C   UNL     1      57.935  78.130   2.710  0.00  0.00    +0.325 A 
ATOM     10  C   UNL     1      58.010  79.517   2.544  0.00  0.00    +0.075 A 
ATOM     11  C   UNL     1      56.920  80.430   3.059  0.00  0.00    +0.055 C 
ATOM     12  C   UNL     1      59.101  80.066   1.903  0.00  0.00    +0.230 A 
ATOM     15  N   UNL     1      60.057  79.239   1.412  0.00  0.00    -0.115 NA
ATOM     16  C   UNL     1      59.994  77.874   1.596  0.00  0.00    +0.484 A 
BRANCH  12  13
ATOM     13  O   UNL     1      59.222  81.280   1.770  0.00  0.00    -0.492 OA
ATOM     14  H   UNL     1      60.104  81.598   2.242  0.00  0.00    +0.294 HD
ENDBRANCH  12  13
BRANCH  16  17
ATOM     17  O   UNL     1      60.945  77.223   1.120  0.00  0.00    -0.444 OA
ATOM     18  H   UNL     1      61.409  76.672   1.884  0.00  0.00    +0.300 HD
ENDBRANCH  16  17
ENDBRANCH   7   8
BRANCH   5  19
ATOM     19  O   UNL     1      58.836  73.097   3.438  0.00  0.00    -0.389 OA
ATOM     20  H   UNL     1      58.344  72.189   3.248  0.00  0.00    +0.210 HD
ENDBRANCH   5  19
BRANCH   4   3
ATOM      3  C   UNL     1      55.754  74.691   2.527  0.00  0.00    +0.202 C 
BRANCH   3   2
ATOM      2  O   UNL     1      54.831  73.630   2.793  0.00  0.00    -0.325 OA
BRANCH   2   1
ATOM      1  P   UNL     1      53.207  73.866   2.825  0.00  0.00    +0.218 P 
ATOM     31  O   UNL     1      52.562  72.582   2.508  0.00  0.00    -0.517 OA
ATOM     32  O   UNL     1      52.933  75.093   2.051  0.00  0.00    -0.437 OA
BRANCH   1  22
ATOM     22  O   UNL     1      53.063  74.140   4.385  0.00  0.00    -0.270 OA
BRANCH  22  23
ATOM     23  P   UNL     1      52.152  73.407   5.458  0.00  0.00    +0.221 P 
ATOM     29  O   UNL     1      52.593  72.028   5.442  0.00  0.00    -0.517 OA
ATOM     30  O   UNL     1      52.158  74.247   6.679  0.00  0.00    -0.437 OA
BRANCH  23  24
ATOM     24  O   UNL     1      50.876  73.710   4.552  0.00  0.00    -0.314 OA
BRANCH  24  25
ATOM     25  P   UNL     1      49.339  73.409   4.730  0.00  0.00    -0.007 P 
ATOM     26  O   UNL     1      48.791  74.534   3.945  0.00  0.00    -0.577 OA
ATOM     27  O   UNL     1      48.932  73.383   6.190  0.00  0.00    -0.577 OA
ATOM     28  O   UNL     1      49.000  72.154   4.069  0.00  0.00    -0.637 OA
ENDBRANCH  24  25
ENDBRANCH  23  24
ENDBRANCH  22  23
ENDBRANCH   1  22
ENDBRANCH   2   1
ENDBRANCH   3   2
ENDBRANCH   4   3
TORSDOF 11
