REMARK  Name = 3vry_ligand
REMARK  4 active torsions:
REMARK  status: ('A' for Active; 'I' for Inactive)
REMARK    1  A    between atoms: N2_8  and  C17_9
REMARK    2  A    between atoms: C3_15  and  C4_16
REMARK    3  A    between atoms: C7_19  and  O_22
REMARK    4  A    between atoms: O_22  and  C8_23
REMARK                            x       y       z     vdW  Elec       q    Type
REMARK                         _______ _______ _______ _____ _____    ______ ____
ROOT
ATOM      1  N   UNL     1       3.681  -7.413  12.381  0.00  0.00    -0.316 N 
ATOM      2  H   UNL     1       4.015  -6.457  12.195  0.00  0.00    +0.182 HD
ATOM      3  H   UNL     1       2.788  -7.560  12.873  0.00  0.00    +0.182 HD
ATOM      4  C   UNL     1       4.415  -8.477  11.978  0.00  0.00    +0.117 A 
ATOM      5  C   UNL     1       3.968  -9.761  12.243  0.00  0.00    +0.053 A 
ATOM      6  C   UNL     1       2.856 -10.303  12.901  0.00  0.00    -0.010 A 
ATOM     20  C   UNL     1       2.995 -11.665  12.820  0.00  0.00    +0.137 A 
ATOM     21  N   UNL     1       4.120 -11.981  12.203  0.00  0.00    -0.246 N 
ATOM     27  C   UNL     1       4.749 -10.845  11.818  0.00  0.00    +0.141 A 
ATOM     28  N   UNL     1       5.923 -10.596  11.166  0.00  0.00    -0.276 NA
ATOM     29  C   UNL     1       6.333  -9.338  10.924  0.00  0.00    +0.149 A 
ATOM     30  N   UNL     1       5.592  -8.298  11.329  0.00  0.00    -0.273 NA
ENDROOT
BRANCH   6   7
ATOM      7  C   UNL     1       1.607  -9.783  13.517  0.00  0.00    -0.047 A 
ATOM      8  C   UNL     1       0.831  -8.879  12.796  0.00  0.00    -0.014 A 
ATOM      9  C   UNL     1      -0.389  -8.464  13.320  0.00  0.00    +0.022 A 
ATOM     10  C   UNL     1      -0.863  -8.949  14.539  0.00  0.00    +0.112 A 
ATOM     18  C   UNL     1      -0.105  -9.891  15.234  0.00  0.00    +0.022 A 
ATOM     19  C   UNL     1       1.127 -10.322  14.716  0.00  0.00    -0.014 A 
BRANCH  10  11
ATOM     11  O   UNL     1      -2.079  -8.495  15.014  0.00  0.00    -0.260 OA
BRANCH  11  12
ATOM     12  C   UNL     1      -2.293  -8.154  16.327  0.00  0.00    +0.115 A 
ATOM     13  C   UNL     1      -1.378  -7.330  16.982  0.00  0.00    +0.027 A 
ATOM     14  C   UNL     1      -1.586  -6.953  18.308  0.00  0.00    -0.011 A 
ATOM     15  C   UNL     1      -2.725  -7.395  18.988  0.00  0.00    -0.020 A 
ATOM     16  C   UNL     1      -3.657  -8.216  18.338  0.00  0.00    -0.011 A 
ATOM     17  C   UNL     1      -3.440  -8.587  17.005  0.00  0.00    +0.027 A 
ENDBRANCH  11  12
ENDBRANCH  10  11
ENDBRANCH   6   7
BRANCH  21  22
ATOM     22  C   UNL     1       4.416 -13.433  12.060  0.00  0.00    +0.132 C 
ATOM     23  C   UNL     1       5.601 -13.949  12.885  0.00  0.00    +0.036 C 
ATOM     24  C   UNL     1       5.840 -15.339  12.310  0.00  0.00    +0.003 C 
ATOM     25  C   UNL     1       5.148 -15.367  10.941  0.00  0.00    +0.003 C 
ATOM     26  C   UNL     1       4.665 -13.946  10.660  0.00  0.00    +0.036 C 
ENDBRANCH  21  22
TORSDOF 4
