REMARK  Name = 3w1f_ligand
REMARK  9 active torsions:
REMARK  status: ('A' for Active; 'I' for Inactive)
REMARK    1  A    between atoms: S_2  and  N3_4
REMARK    2  A    between atoms: S_2  and  C12_5
REMARK    3  A    between atoms: C13_7  and  C14_8
REMARK    4  A    between atoms: C10_11  and  C7_12
REMARK    5  A    between atoms: C3_17  and  O1_18
REMARK    6  A    between atoms: O1_18  and  C2_19
REMARK    7  A    between atoms: C2_19  and  C1_20
REMARK    8  A    between atoms: C4_23  and  C17_24
REMARK    9  A    between atoms: N4_27  and  C19_28
REMARK                            x       y       z     vdW  Elec       q    Type
REMARK                         _______ _______ _______ _____ _____    ______ ____
ROOT
ATOM      8  C   UNL     1       0.011 -33.812  -9.821  0.00  0.00    +0.130 A 
ATOM      9  C   UNL     1       0.829 -33.951 -11.036  0.00  0.00    +0.019 A 
ATOM     10  C   UNL     1       1.052 -32.581 -11.533  0.00  0.00    -0.021 A 
ATOM     11  C   UNL     1       1.787 -32.390 -12.694  0.00  0.00    -0.010 A 
ATOM     12  C   UNL     1       2.315 -33.488 -13.357  0.00  0.00    -0.004 A 
ATOM     19  C   UNL     1       2.064 -34.872 -12.852  0.00  0.00    +0.094 A 
ATOM     23  N   UNL     1       0.439 -31.753 -10.678  0.00  0.00    -0.324 NA
ATOM     24  C   UNL     1       1.327 -35.065 -11.688  0.00  0.00    +0.030 A 
ATOM     25  N   UNL     1      -0.188 -32.477  -9.651  0.00  0.00    -0.243 N 
ATOM     26  H   UNL     1      -0.723 -32.057  -8.878  0.00  0.00    +0.283 HD
ENDROOT
BRANCH   8   7
ATOM      3  C   UNL     1      -1.042 -35.598  -6.709  0.00  0.00    +0.112 A 
ATOM      4  C   UNL     1      -1.367 -36.970  -7.239  0.00  0.00    -0.016 A 
ATOM      5  C   UNL     1      -1.222 -37.214  -8.598  0.00  0.00    +0.002 A 
ATOM      6  C   UNL     1      -0.779 -36.181  -9.426  0.00  0.00    +0.009 A 
ATOM      7  C   UNL     1      -0.474 -34.908  -8.936  0.00  0.00    +0.025 A 
ATOM     27  C   UNL     1      -1.850 -38.101  -6.382  0.00  0.00    +0.093 C 
ATOM     28  C   UNL     1      -0.602 -34.624  -7.593  0.00  0.00    +0.037 A 
BRANCH   3   2
ATOM      1  O   UNL     1      -0.238 -36.067  -4.477  0.00  0.00    -0.151 OA
ATOM      2  S   UNL     1      -1.154 -35.186  -5.157  0.00  0.00    +0.064 S 
ATOM     32  O   UNL     1      -0.842 -33.790  -4.889  0.00  0.00    -0.151 OA
BRANCH   2  29
ATOM     29  N   UNL     1      -2.660 -35.395  -4.632  0.00  0.00    -0.262 NA
ATOM     30  H   UNL     1      -3.159 -34.629  -4.226  0.00  0.00    +0.163 HD
ATOM     31  H   UNL     1      -3.098 -36.291  -4.712  0.00  0.00    +0.163 HD
ENDBRANCH   2  29
ENDBRANCH   3   2
ENDBRANCH   8   7
BRANCH  12  13
ATOM     13  C   UNL     1       3.091 -33.287 -14.613  0.00  0.00    -0.003 A 
ATOM     14  C   UNL     1       2.850 -32.284 -15.543  0.00  0.00    +0.160 A 
ATOM     15  N   UNL     1       3.727 -32.477 -16.516  0.00  0.00    -0.208 N 
ATOM     16  C   UNL     1       4.010 -31.759 -17.781  0.00  0.00    +0.242 C 
ATOM     17  N   UNL     1       4.544 -33.584 -16.260  0.00  0.00    -0.215 NA
ATOM     18  C   UNL     1       4.129 -34.086 -15.082  0.00  0.00    +0.070 A 
ENDBRANCH  12  13
BRANCH  19  20
ATOM     20  O   UNL     1       2.572 -35.942 -13.535  0.00  0.00    -0.319 OA
BRANCH  20  21
ATOM     21  C   UNL     1       2.334 -37.280 -13.113  0.00  0.00    +0.190 C 
ATOM     22  C   UNL     1       3.408 -38.129 -13.753  0.00  0.00    +0.040 C 
ENDBRANCH  20  21
ENDBRANCH  19  20
TORSDOF 6
