REMARK  Name = 3rwq_ligand
REMARK  10 active torsions:
REMARK  status: ('A' for Active; 'I' for Inactive)
REMARK    1  A    between atoms: N1_2  and  C13_22
REMARK    2  A    between atoms: N1_2  and  C20_29
REMARK    3  A    between atoms: C2_4  and  N5_11
REMARK    4  A    between atoms: C4_8  and  C9_18
REMARK    5  A    between atoms: N4_9  and  C7_14
REMARK    6  A    between atoms: C7_14  and  C8_16
REMARK    7  A    between atoms: C7_14  and  C14_23
REMARK    8  A    between atoms: C9_18  and  C10_19
REMARK    9  A    between atoms: C15_24  and  C18_27
REMARK   10  A    between atoms: C18_27  and  C20_29
REMARK                            x       y       z     vdW  Elec       q    Type
REMARK                         _______ _______ _______ _____ _____    ______ ____
ROOT
ATOM      6  C   UNL     1      35.460 -29.146 -11.566  0.00  0.00    +0.159 C 
ATOM     23  O   UNL     1      34.667 -30.023 -11.234  0.00  0.00    -0.377 OA
ENDROOT
BRANCH   6   5
ATOM      1  C   UNL     1      31.134 -26.438 -13.325  0.00  0.00    +0.149 A 
ATOM      2  N   UNL     1      32.283 -25.774 -13.542  0.00  0.00    -0.275 NA
ATOM      3  C   UNL     1      33.501 -26.318 -13.172  0.00  0.00    +0.144 A 
ATOM      4  C   UNL     1      33.522 -27.666 -12.522  0.00  0.00    +0.062 A 
ATOM      5  C   UNL     1      34.973 -27.889 -12.262  0.00  0.00    +0.048 A 
ATOM     24  C   UNL     1      35.651 -26.779 -12.740  0.00  0.00    +0.162 A 
ATOM     25  C   UNL     1      32.192 -28.317 -12.318  0.00  0.00    +0.118 A 
ATOM     29  N   UNL     1      34.783 -25.878 -13.262  0.00  0.00    -0.239 N 
ATOM     33  N   UNL     1      31.095 -27.649 -12.741  0.00  0.00    -0.272 NA
BRANCH  25  26
ATOM     26  N   UNL     1      32.049 -29.519 -11.736  0.00  0.00    -0.316 N 
ATOM     27  H   UNL     1      31.119 -29.922 -11.619  0.00  0.00    +0.182 HD
ATOM     28  H   UNL     1      32.870 -30.029 -11.411  0.00  0.00    +0.182 HD
ENDBRANCH  25  26
BRANCH  29  30
ATOM     30  C   UNL     1      35.157 -24.575 -13.882  0.00  0.00    +0.128 C 
ATOM     31  C   UNL     1      36.639 -24.592 -14.247  0.00  0.00    +0.043 C 
ATOM     32  C   UNL     1      34.844 -23.418 -12.944  0.00  0.00    +0.043 C 
ENDBRANCH  29  30
ENDBRANCH   6   5
BRANCH   6   7
ATOM      7  C   UNL     1      36.940 -29.269 -11.245  0.00  0.00    +0.114 A 
ATOM      8  C   UNL     1      37.633 -30.480 -11.329  0.00  0.00    +0.130 A 
ATOM      9  N   UNL     1      38.954 -30.544 -11.040  0.00  0.00    -0.280 NA
ATOM     10  C   UNL     1      39.629 -29.426 -10.665  0.00  0.00    +0.150 A 
ATOM     11  C   UNL     1      38.949 -28.197 -10.573  0.00  0.00    +0.147 A 
ATOM     22  N   UNL     1      37.625 -28.155 -10.869  0.00  0.00    -0.243 NA
BRANCH  11  12
ATOM     12  N   UNL     1      39.555 -27.033 -10.183  0.00  0.00    -0.298 N 
ATOM     13  H   UNL     1      38.967 -26.302  -9.783  0.00  0.00    +0.183 HD
BRANCH  12  14
ATOM     14  C   UNL     1      40.993 -26.766 -10.302  0.00  0.00    +0.148 C 
BRANCH  14  15
ATOM     15  C   UNL     1      41.395 -26.014 -11.594  0.00  0.00    +0.100 C 
BRANCH  15  16
ATOM     16  C   UNL     1      40.991 -26.769 -12.856  0.00  0.00    -0.013 A 
ATOM     17  C   UNL     1      41.576 -28.015 -13.170  0.00  0.00    +0.089 A 
ATOM     18  N   UNL     1      41.207 -28.687 -14.281  0.00  0.00    -0.304 NA
ATOM     19  C   UNL     1      40.271 -28.172 -15.100  0.00  0.00    +0.081 A 
ATOM     20  C   UNL     1      39.648 -26.942 -14.835  0.00  0.00    +0.029 A 
ATOM     21  C   UNL     1      40.003 -26.227 -13.699  0.00  0.00    +0.027 A 
ENDBRANCH  15  16
ENDBRANCH  14  15
ENDBRANCH  12  14
ENDBRANCH  11  12
ENDBRANCH   6   7
TORSDOF 8
