REMARK  Name = 3ACJ
REMARK  8 active torsions:
REMARK  status: ('A' for Active; 'I' for Inactive)
REMARK    1  A    between atoms: C_7  and  C_13
REMARK    2  A    between atoms: C_9  and  S_10
REMARK    3  A    between atoms: S_10  and  C_11
REMARK    4  A    between atoms: C_11  and  C_12
REMARK    5  A    between atoms: C_16  and  O_19
REMARK    6  A    between atoms: C_17  and  O_20
REMARK    7  A    between atoms: O_19  and  C_21
REMARK    8  A    between atoms: O_20  and  C_22
REMARK                            x       y       z     vdW  Elec       q    Type
REMARK                         _______ _______ _______ _____ _____    ______ ____
ROOT
ATOM      1  C   UNL     1      25.913  38.046   9.743  0.00  0.00    +0.195 C 
ATOM      2  C   UNL     1      27.257  37.953  10.031  0.00  0.00    +0.055 C 
ATOM      3  C   UNL     1      27.977  36.968   9.383  0.00  0.00    +0.074 C 
ATOM     14  N   UNL     1      27.347  36.140   8.513  0.00  0.00    -0.226 NA
ATOM     15  C   UNL     1      26.032  36.259   8.243  0.00  0.00    +0.159 C 
ATOM     19  N   UNL     1      24.943  38.863  10.191  0.00  0.00    -0.260 NA
ATOM     20  C   UNL     1      23.744  38.553   9.606  0.00  0.00    +0.100 C 
ATOM     21  C   UNL     1      23.936  37.416   8.640  0.00  0.00    +0.156 C 
ATOM     22  N   UNL     1      25.347  37.208   8.867  0.00  0.00    -0.273 N 
ENDROOT
BRANCH   3   4
ATOM      4  C   UNL     1      29.434  36.796   9.622  0.00  0.00    +0.004 A 
ATOM      5  C   UNL     1      30.091  35.838   8.852  0.00  0.00    +0.059 A 
ATOM      6  C   UNL     1      31.459  35.631   8.994  0.00  0.00    +0.162 A 
ATOM      9  C   UNL     1      32.211  36.446  10.009  0.00  0.00    +0.162 A 
ATOM     12  C   UNL     1      31.500  37.409  10.740  0.00  0.00    +0.050 A 
ATOM     13  C   UNL     1      30.127  37.590  10.541  0.00  0.00    +0.014 A 
BRANCH   6   7
ATOM      7  O   UNL     1      32.061  34.651   8.239  0.00  0.00    -0.491 OA
ATOM      8  C   UNL     1      32.178  34.745   6.817  0.00  0.00    +0.277 C 
ENDBRANCH   6   7
BRANCH   9  10
ATOM     10  O   UNL     1      33.571  36.283  10.242  0.00  0.00    -0.491 OA
ATOM     11  C   UNL     1      34.367  35.262   9.621  0.00  0.00    +0.277 C 
ENDBRANCH   9  10
ENDBRANCH   3   4
BRANCH  15  16
ATOM     16  S   UNL     1      25.264  35.239   7.113  0.00  0.00    -0.091 S 
BRANCH  16  17
ATOM     17  C   UNL     1      26.456  34.054   6.566  0.00  0.00    +0.074 C 
ATOM     18  C   UNL     1      27.614  34.751   5.883  0.00  0.00    +0.016 C 
ENDBRANCH  16  17
ENDBRANCH  15  16
TORSDOF 5
