REMARK  Name = 1XJQ
REMARK  9 active torsions:
REMARK  status: ('A' for Active; 'I' for Inactive)
REMARK    1  A    between atoms: P_1  and  O_8
REMARK    2  A    between atoms: P_5  and  O_8
REMARK    3  A    between atoms: P_5  and  O_9
REMARK    4  A    between atoms: O_9  and  C_10
REMARK    5  A    between atoms: C_10  and  C_11
REMARK    6  A    between atoms: C_13  and  O_14
REMARK    7  A    between atoms: C_15  and  O_16
REMARK    8  A    between atoms: C_17  and  N_18
REMARK    9  A    between atoms: C_22  and  N_23
REMARK                            x       y       z     vdW  Elec       q    Type
REMARK                         _______ _______ _______ _____ _____    ______ ____
ROOT
ATOM      6  C   UNL     1      14.197  10.761  24.180  0.00  0.00    +0.178 C 
ATOM      7  C   UNL     1      15.401  11.756  24.364  0.00  0.00    +0.178 C 
ATOM      8  C   UNL     1      16.460  11.037  23.529  0.00  0.00    +0.195 C 
ATOM      9  C   UNL     1      16.201   9.575  24.047  0.00  0.00    +0.253 C 
ATOM     26  O   UNL     1      14.814   9.536  24.344  0.00  0.00    -0.346 OA
ENDROOT
BRANCH   9  10
ATOM     10  N   UNL     1      16.405   8.436  23.194  0.00  0.00    -0.285 N 
ATOM     11  C   UNL     1      17.283   7.382  23.424  0.00  0.00    +0.167 A 
ATOM     12  N   UNL     1      18.152   7.059  24.384  0.00  0.00    -0.216 NA
ATOM     13  C   UNL     1      18.806   5.882  24.338  0.00  0.00    +0.225 A 
ATOM     14  N   UNL     1      18.594   5.006  23.276  0.00  0.00    -0.219 NA
ATOM     15  C   UNL     1      17.716   5.353  22.300  0.00  0.00    +0.147 A 
ATOM     19  C   UNL     1      17.074   6.528  22.375  0.00  0.00    +0.147 A 
ATOM     20  N   UNL     1      16.155   6.995  21.517  0.00  0.00    -0.231 NA
ATOM     21  C   UNL     1      15.719   8.176  22.008  0.00  0.00    +0.203 A 
BRANCH  15  16
ATOM     16  N   UNL     1      17.140   4.513  21.413  0.00  0.00    -0.341 N 
ATOM     17  H   UNL     1      17.552   3.538  21.254  0.00  0.00    +0.144 HD
ATOM     18  H   UNL     1      16.272   4.822  20.869  0.00  0.00    +0.144 HD
ENDBRANCH  15  16
ENDBRANCH   9  10
BRANCH   8  22
ATOM     22  O   UNL     1      17.856  11.232  23.743  0.00  0.00    -0.385 OA
ATOM     23  H   UNL     1      18.095  12.244  23.599  0.00  0.00    +0.210 HD
ENDBRANCH   8  22
BRANCH   7  24
ATOM     24  O   UNL     1      15.841  11.841  25.723  0.00  0.00    -0.386 OA
ATOM     25  H   UNL     1      15.050  12.177  26.327  0.00  0.00    +0.210 HD
ENDBRANCH   7  24
BRANCH   6   5
ATOM      5  C   UNL     1      14.010  10.376  22.753  0.00  0.00    +0.202 C 
BRANCH   5   4
ATOM      4  O   UNL     1      12.998  11.042  22.362  0.00  0.00    -0.325 OA
BRANCH   4   3
ATOM      3  P   UNL     1      12.896  11.171  20.868  0.00  0.00    +0.215 P 
ATOM     27  O   UNL     1      13.558  10.878  19.557  0.00  0.00    -0.517 OA
ATOM     28  O   UNL     1      11.358  11.159  20.765  0.00  0.00    -0.437 OA
BRANCH   3   2
ATOM      2  O   UNL     1      12.830  12.756  20.635  0.00  0.00    -0.314 OA
BRANCH   2   1
ATOM      1  P   UNL     1      13.915  13.895  21.025  0.00  0.00    -0.007 P 
ATOM     29  O   UNL     1      15.109  13.256  21.383  0.00  0.00    -0.637 OA
ATOM     30  O   UNL     1      13.784  14.822  19.885  0.00  0.00    -0.577 OA
ATOM     31  O   UNL     1      13.204  14.705  21.980  0.00  0.00    -0.577 OA
ENDBRANCH   2   1
ENDBRANCH   3   2
ENDBRANCH   4   3
ENDBRANCH   5   4
ENDBRANCH   6   5
TORSDOF 9
