REMARK  Name = 2a4l_ligand
REMARK  10 active torsions:
REMARK  status: ('A' for Active; 'I' for Inactive)
REMARK    1  A    between atoms: OAP_1  and  CAQ_2
REMARK    2  A    between atoms: CAQ_2  and  CAR_3
REMARK    3  A    between atoms: CAR_3  and  CAK_4
REMARK    4  A    between atoms: CAR_3  and  NAS_6
REMARK    5  A    between atoms: CAK_4  and  CAI_5
REMARK    6  A    between atoms: NAW_10  and  CAZ_11
REMARK    7  A    between atoms: CAZ_11  and  CAY_12
REMARK    8  A    between atoms: CAZ_11  and  CBA_13
REMARK    9  A    between atoms: NAJ_19  and  CAD_20
REMARK   10  A    between atoms: CAD_20  and  CAE_21
REMARK                            x       y       z     vdW  Elec       q    Type
REMARK                         _______ _______ _______ _____ _____    ______ ____
ROOT
ATOM      5  N   UNL     1      99.689  99.675  80.771  0.00  0.00    -0.292 N 
ATOM      6  H   UNL     1      99.126  99.318  79.986  0.00  0.00    +0.185 HD
ATOM      7  C   UNL     1     100.605 100.579  80.397  0.00  0.00    +0.154 A 
ATOM      8  N   UNL     1     100.613 101.293  79.240  0.00  0.00    -0.256 NA
ATOM      9  C   UNL     1     101.582 102.198  78.895  0.00  0.00    +0.122 A 
ATOM     10  N   UNL     1     101.479 102.793  77.721  0.00  0.00    -0.292 N 
ATOM     11  H   UNL     1     102.206 103.422  77.350  0.00  0.00    +0.188 HD
ATOM     19  C   UNL     1     102.627 102.352  79.851  0.00  0.00    +0.092 A 
ATOM     20  N   UNL     1     103.798 103.097  79.918  0.00  0.00    -0.304 NA
ATOM     21  C   UNL     1     104.385 102.795  81.053  0.00  0.00    +0.236 A 
ATOM     22  N   UNL     1     103.671 101.870  81.769  0.00  0.00    -0.225 N 
ATOM     26  C   UNL     1     102.566 101.608  81.000  0.00  0.00    +0.142 A 
ATOM     27  N   UNL     1     101.580 100.731  81.285  0.00  0.00    -0.265 NA
ENDROOT
BRANCH  22  23
ATOM     23  C   UNL     1     103.942 101.208  83.053  0.00  0.00    +0.129 C 
ATOM     24  C   UNL     1     102.750 101.454  84.012  0.00  0.00    +0.043 C 
ATOM     25  C   UNL     1     104.143  99.692  82.820  0.00  0.00    +0.043 C 
ENDBRANCH  22  23
BRANCH   5   4
ATOM      4  CA  UNL     1      99.303  99.060  82.125  0.00  0.00    +0.122 C 
BRANCH   4  28
ATOM     28  C   UNL     1      99.580  97.539  82.113  0.00  0.00    +0.027 C 
ATOM     29  C   UNL     1     100.869  97.070  82.813  0.00  0.00    +0.006 C 
ENDBRANCH   4  28
BRANCH   4   3
ATOM      3  C   UNL     1      97.820  99.316  82.399  0.00  0.00    +0.183 C 
BRANCH   3   1
ATOM      1  O   UNL     1      96.941  98.398  81.701  0.00  0.00    -0.393 OA
ATOM      2  H   UNL     1      96.038  98.606  81.910  0.00  0.00    +0.209 HD
ENDBRANCH   3   1
ENDBRANCH   4   3
ENDBRANCH   5   4
BRANCH  10  12
ATOM     12  C   UNL     1     100.239 102.485  76.983  0.00  0.00    +0.201 C 
BRANCH  12  13
ATOM     13  C   UNL     1      99.608 103.832  76.581  0.00  0.00    -0.021 A 
ATOM     14  C   UNL     1      98.224 103.961  76.550  0.00  0.00    -0.003 A 
ATOM     15  C   UNL     1      97.648 105.173  76.188  0.00  0.00    -0.009 A 
ATOM     16  C   UNL     1      98.498 106.229  75.864  0.00  0.00    -0.013 A 
ATOM     17  C   UNL     1      99.883 106.112  75.870  0.00  0.00    -0.009 A 
ATOM     18  C   UNL     1     100.439 104.891  76.236  0.00  0.00    -0.003 A 
ENDBRANCH  12  13
ENDBRANCH  10  12
TORSDOF 7
