REMARK  Name = 4FV3
REMARK  14 active torsions:
REMARK  status: ('A' for Active; 'I' for Inactive)
REMARK    1  A    between atoms: C_3  and  C_4
REMARK    2  A    between atoms: C_4  and  N_5
REMARK    3  A    between atoms: N_5  and  C_6
REMARK    4  A    between atoms: C_6  and  C_7
REMARK    5  A    between atoms: C_7  and  O_9
REMARK    6  A    between atoms: O_9  and  C_10
REMARK    7  A    between atoms: C_10  and  C_11
REMARK    8  A    between atoms: C_13  and  C_16
REMARK    9  A    between atoms: C_17  and  C_21
REMARK   10  A    between atoms: CA_23  and  C_26
REMARK   11  A    between atoms: N_28  and  CA_29
REMARK   12  A    between atoms: CA_29  and  C_30
REMARK   13  A    between atoms: CA_29  and  C_32
REMARK   14  A    between atoms: C_30  and  O_31
REMARK                            x       y       z     vdW  Elec       q    Type
REMARK                         _______ _______ _______ _____ _____    ______ ____
ROOT
ATOM      5  C   UNL     1      20.806   5.582  15.443  0.00  0.00    +0.027 A 
ATOM      6  C   UNL     1      22.160   5.312  15.185  0.00  0.00    +0.143 A 
ATOM      7  N   UNL     1      22.422   4.072  15.727  0.00  0.00    -0.181 NA
ATOM      8  N   UNL     1      21.333   3.524  16.319  0.00  0.00    -0.276 N 
ATOM      9  H   UNL     1      21.277   2.573  16.807  0.00  0.00    +0.189 HD
ATOM     10  C   UNL     1      20.316   4.433  16.168  0.00  0.00    +0.075 A 
ENDROOT
BRANCH   5   4
ATOM      1 CL   UNL     1      17.695   9.476  16.665  0.00  0.00    -0.083 Cl
ATOM      2  C   UNL     1      18.715   8.692  15.495  0.00  0.00    +0.046 A 
ATOM      3  C   UNL     1      19.340   7.518  15.931  0.00  0.00    +0.029 A 
ATOM      4  C   UNL     1      20.144   6.795  15.020  0.00  0.00    -0.013 A 
ATOM     32  C   UNL     1      20.316   7.275  13.706  0.00  0.00    +0.009 A 
ATOM     33  C   UNL     1      19.700   8.469  13.287  0.00  0.00    +0.007 A 
ATOM     34  C   UNL     1      18.876   9.205  14.168  0.00  0.00    -0.015 A 
BRANCH  34  35
ATOM     35  C   UNL     1      18.170  10.466  13.731  0.00  0.00    +0.118 C 
BRANCH  35  36
ATOM     36  N   UNL     1      16.972  10.111  12.899  0.00  0.00    -0.303 NA
ATOM     37  H   UNL     1      17.247   9.299  12.259  0.00  0.00    +0.123 HD
BRANCH  36  38
ATOM     38  C   UNL     1      15.758   9.707  13.650  0.00  0.00    +0.203 C 
BRANCH  38  39
ATOM     39  C   UNL     1      14.926  10.829  14.286  0.00  0.00    +0.321 C 
ATOM     43  O   UNL     1      14.058  10.682  15.139  0.00  0.00    -0.249 OA
BRANCH  39  40
ATOM     40  O   UNL     1      15.265  12.054  13.769  0.00  0.00    -0.464 OA
BRANCH  40  41
ATOM     41  C   UNL     1      14.632  13.259  14.190  0.00  0.00    +0.229 C 
ATOM     42  C   UNL     1      14.282  13.975  12.884  0.00  0.00    +0.048 C 
ENDBRANCH  40  41
ENDBRANCH  39  40
ENDBRANCH  38  39
ENDBRANCH  36  38
ENDBRANCH  35  36
ENDBRANCH  34  35
ENDBRANCH   5   4
BRANCH  10  11
ATOM     11  C   UNL     1      19.032   4.156  16.763  0.00  0.00    +0.021 A 
ATOM     12  C   UNL     1      18.839   3.432  17.940  0.00  0.00    +0.121 A 
ATOM     13  N   UNL     1      17.491   3.415  18.218  0.00  0.00    -0.250 NA
ATOM     14  CA  UNL     1      16.816   4.131  17.234  0.00  0.00    +0.126 A 
ATOM     31  C   UNL     1      17.751   4.590  16.307  0.00  0.00    +0.044 A 
BRANCH  14  15
ATOM     15  C   UNL     1      15.370   4.403  17.271  0.00  0.00    +0.263 C 
ATOM     16  N   UNL     1      14.916   5.430  16.437  0.00  0.00    -0.301 N 
ATOM     17  H   UNL     1      15.630   5.939  15.824  0.00  0.00    +0.150 HD
ATOM     30  O   UNL     1      14.622   3.763  18.014  0.00  0.00    -0.269 OA
BRANCH  16  18
ATOM     18  CA  UNL     1      13.498   5.848  16.359  0.00  0.00    +0.129 C 
BRANCH  18  19
ATOM     19  C   UNL     1      13.132   6.788  17.498  0.00  0.00    -0.024 A 
ATOM     20  C   UNL     1      11.865   6.674  18.126  0.00  0.00    +0.008 A 
ATOM     21  C   UNL     1      11.518   7.506  19.209  0.00  0.00    +0.040 A 
ATOM     22  C   UNL     1      12.461   8.463  19.669  0.00  0.00    +0.142 A 
ATOM     23  F   UNL     1      12.158   9.239  20.699  0.00  0.00    -0.204 F 
ATOM     24  C   UNL     1      13.721   8.575  19.041  0.00  0.00    +0.076 A 
ATOM     25 CL   UNL     1      14.855   9.703  19.611  0.00  0.00    -0.081 Cl
ATOM     26  C   UNL     1      14.066   7.754  17.958  0.00  0.00    +0.028 A 
ENDBRANCH  18  19
BRANCH  18  27
ATOM     27  C   UNL     1      13.212   6.601  15.018  0.00  0.00    +0.183 C 
BRANCH  27  28
ATOM     28  O   UNL     1      13.708   5.808  13.974  0.00  0.00    -0.393 OA
ATOM     29  H   UNL     1      14.741   5.667  14.102  0.00  0.00    +0.209 HD
ENDBRANCH  27  28
ENDBRANCH  18  27
ENDBRANCH  16  18
ENDBRANCH  14  15
ENDBRANCH  10  11
TORSDOF 13
