REMARK  Name = 1ogu_ligand
REMARK  6 active torsions:
REMARK  status: ('A' for Active; 'I' for Inactive)
REMARK    1  A    between atoms: C10_2  and  C11_3
REMARK    2  A    between atoms: C10_2  and  O6_16
REMARK    3  A    between atoms: C20_10  and  C23_25
REMARK    4  A    between atoms: C6_15  and  O6_16
REMARK    5  A    between atoms: C5_17  and  N7_18
REMARK    6  A    between atoms: N2_22  and  C17_23
REMARK                            x       y       z     vdW  Elec       q    Type
REMARK                         _______ _______ _______ _____ _____    ______ ____
ROOT
ATOM      1  C   UNL     1       8.115  44.009  50.134  0.00  0.00    +0.194 A 
ATOM      2  N   UNL     1       7.820  43.085  49.225  0.00  0.00    -0.239 N 
ATOM      3  H   UNL     1       8.533  42.843  48.522  0.00  0.00    +0.223 HD
ATOM     15  N   UNL     1       9.401  44.335  50.315  0.00  0.00    -0.239 NA
ATOM     16  C   UNL     1       9.758  45.245  51.257  0.00  0.00    +0.149 A 
ATOM     17  N   UNL     1      11.053  45.544  51.446  0.00  0.00    -0.311 N 
ATOM     18  H   UNL     1      11.324  46.228  52.167  0.00  0.00    +0.185 HD
ATOM     19  H   UNL     1      11.776  45.090  50.870  0.00  0.00    +0.185 HD
ATOM     20  C   UNL     1       8.703  45.882  52.069  0.00  0.00    +0.210 A 
ATOM     23  C   UNL     1       7.331  45.464  51.797  0.00  0.00    +0.203 A 
ATOM     32  N   UNL     1       7.115  44.547  50.848  0.00  0.00    -0.229 NA
ENDROOT
BRANCH   2   4
ATOM      4  C   UNL     1       6.606  42.435  49.179  0.00  0.00    +0.073 A 
ATOM      5  C   UNL     1       6.189  41.906  47.957  0.00  0.00    +0.024 A 
ATOM      6  C   UNL     1       4.987  41.253  47.817  0.00  0.00    +0.013 A 
ATOM      7  C   UNL     1       4.154  41.087  48.922  0.00  0.00    +0.038 A 
ATOM     13  C   UNL     1       4.561  41.625  50.157  0.00  0.00    +0.013 A 
ATOM     14  C   UNL     1       5.790  42.283  50.302  0.00  0.00    +0.024 A 
BRANCH   7   8
ATOM      8  C   UNL     1       2.801  40.409  48.728  0.00  0.00    +0.194 C 
ATOM      9  O   UNL     1       2.204  40.639  47.683  0.00  0.00    -0.390 OA
ATOM     10  N   UNL     1       2.151  39.602  49.702  0.00  0.00    -0.302 N 
ATOM     11  H   UNL     1       2.583  39.446  50.590  0.00  0.00    +0.180 HD
ATOM     12  H   UNL     1       1.262  39.191  49.499  0.00  0.00    +0.180 HD
ENDBRANCH   7   8
ENDBRANCH   2   4
BRANCH  20  21
ATOM     21  N   UNL     1       8.936  46.812  53.065  0.00  0.00    -0.070 NA
ATOM     22  O   UNL     1      10.067  47.174  53.296  0.00  0.00    -0.268 OA
ENDBRANCH  20  21
BRANCH  23  24
ATOM     24  O   UNL     1       6.298  46.082  52.422  0.00  0.00    -0.286 OA
BRANCH  24  25
ATOM     25  C   UNL     1       4.972  45.654  52.134  0.00  0.00    +0.209 C 
BRANCH  25  26
ATOM     26  C   UNL     1       4.094  46.091  53.275  0.00  0.00    +0.021 C 
ATOM     27  C   UNL     1       2.656  45.782  52.906  0.00  0.00    +0.006 C 
ATOM     28  C   UNL     1       1.781  46.339  54.016  0.00  0.00    +0.000 C 
ATOM     29  C   UNL     1       2.217  45.759  55.373  0.00  0.00    +0.000 C 
ATOM     30  C   UNL     1       3.710  45.915  55.664  0.00  0.00    +0.000 C 
ATOM     31  C   UNL     1       4.489  45.307  54.519  0.00  0.00    +0.006 C 
ENDBRANCH  25  26
ENDBRANCH  24  25
ENDBRANCH  23  24
TORSDOF 6
