REMARK  Name = A9N
REMARK  4 active torsions:
REMARK  status: ('A' for Active; 'I' for Inactive)
REMARK    1  A    between atoms: S_2  and  N2_4
REMARK    2  A    between atoms: S_2  and  C11_8
REMARK    3  A    between atoms: N2_4  and  C13_5
REMARK    4  A    between atoms: C6_14  and  C5_15
REMARK                            x       y       z     vdW  Elec       q    Type
REMARK                         _______ _______ _______ _____ _____    ______ ____
ROOT
ATOM      3  C   UNL     1      18.706  11.894 -11.204  0.00  0.00    +0.120 A 
ATOM      4  C   UNL     1      19.534  11.099 -10.443  0.00  0.00    +0.020 A 
ATOM      5  C   UNL     1      19.015  10.046  -9.716  0.00  0.00    +0.005 A 
ATOM     13  C   UNL     1      17.660   9.795  -9.761  0.00  0.00    -0.000 A 
ATOM     14  C   UNL     1      16.838  10.598 -10.529  0.00  0.00    -0.003 A 
ATOM     15  C   UNL     1      17.324  11.662 -11.266  0.00  0.00    -0.003 A 
ATOM     16  C   UNL     1      16.377  12.482 -12.069  0.00  0.00    +0.032 C 
ENDROOT
BRANCH   5   6
ATOM      6  C   UNL     1      19.924   9.217  -8.904  0.00  0.00    +0.050 A 
ATOM      7  C   UNL     1      19.812   8.936  -7.526  0.00  0.00    +0.101 A 
ATOM      8  C   UNL     1      18.861   9.301  -6.664  0.00  0.00    +0.056 C 
ATOM      9  N   UNL     1      20.870   8.194  -7.187  0.00  0.00    -0.082 NA
ATOM     10  O   UNL     1      21.667   7.981  -8.307  0.00  0.00    -0.358 OA
ATOM     11  C   UNL     1      21.074   8.620  -9.346  0.00  0.00    +0.154 A 
ATOM     12  C   UNL     1      21.745   8.541 -10.650  0.00  0.00    +0.075 C 
ENDBRANCH   5   6
BRANCH   3   2
ATOM      1  O   UNL     1      20.772  13.346 -11.616  0.00  0.00    -0.152 OA
ATOM      2  S   UNL     1      19.432  13.230 -12.115  0.00  0.00    +0.076 S 
ATOM     21  O   UNL     1      19.207  12.975 -13.502  0.00  0.00    -0.152 OA
BRANCH   2  17
ATOM     17  N   UNL     1      18.669  14.596 -11.738  0.00  0.00    -0.079 NA
BRANCH  17  18
ATOM     18  C   UNL     1      18.658  15.107 -10.371  0.00  0.00    +0.098 C 
ATOM     19  C   UNL     1      19.720  16.025  -9.886  0.00  0.00    +0.021 C 
ATOM     20  C   UNL     1      18.552  16.559 -10.092  0.00  0.00    +0.021 C 
ENDBRANCH  17  18
ENDBRANCH   2  17
ENDBRANCH   3   2
TORSDOF 4
