REMARK  Name = 5IHA
REMARK  9 active torsions:
REMARK  status: ('A' for Active; 'I' for Inactive)
REMARK    1  A    between atoms: C_3  and  O_4
REMARK    2  A    between atoms: O_4  and  C_14
REMARK    3  A    between atoms: C_6  and  N_28
REMARK    4  A    between atoms: C_13  and  N_29
REMARK    5  A    between atoms: C_14  and  C_15
REMARK    6  A    between atoms: C_15  and  C_16
REMARK    7  A    between atoms: C_15  and  C_17
REMARK    8  A    between atoms: C_19  and  C_21
REMARK    9  A    between atoms: N_23  and  C_26
REMARK                            x       y       z     vdW  Elec       q    Type
REMARK                         _______ _______ _______ _____ _____    ______ ____
ROOT
ATOM      4  C   UNL     1      -4.697  -8.272   2.105  0.00  0.00    +0.024 A 
ATOM      5  C   UNL     1      -4.526  -7.031   1.435  0.00  0.00    +0.143 A 
ATOM      6  N   UNL     1      -3.781  -7.166   0.357  0.00  0.00    -0.174 NA
ATOM      7  N   UNL     1      -3.427  -8.478   0.298  0.00  0.00    -0.239 N 
ATOM     21  C   UNL     1      -3.993  -9.162   1.344  0.00  0.00    +0.123 A 
ENDROOT
BRANCH   4   3
ATOM      1  C   UNL     1      -6.890  -7.656   5.130  0.00  0.00    +0.111 A 
ATOM      2  C   UNL     1      -6.209  -7.450   3.920  0.00  0.00    +0.032 A 
ATOM      3  C   UNL     1      -5.435  -8.507   3.369  0.00  0.00    +0.030 A 
ATOM     22  C   UNL     1      -5.328  -9.723   4.117  0.00  0.00    +0.146 A 
ATOM     28  C   UNL     1      -6.055  -9.812   5.341  0.00  0.00    +0.157 A 
ATOM     29  N   UNL     1      -6.803  -8.807   5.836  0.00  0.00    -0.260 NA
BRANCH  22  23
ATOM     23  O   UNL     1      -4.514 -10.732   3.635  0.00  0.00    -0.490 OA
BRANCH  23  24
ATOM     24  C   UNL     1      -4.096 -11.827   4.469  0.00  0.00    +0.232 C 
BRANCH  24  25
ATOM     25  C   UNL     1      -3.008 -12.652   3.763  0.00  0.00    +0.020 C 
ATOM     26  C   UNL     1      -1.805 -11.823   3.267  0.00  0.00    +0.010 C 
ATOM     27  C   UNL     1      -3.611 -13.501   2.634  0.00  0.00    +0.010 C 
ENDBRANCH  24  25
ENDBRANCH  23  24
ENDBRANCH  22  23
ENDBRANCH   4   3
BRANCH   7   8
ATOM      8  C   UNL     1      -2.568  -8.979  -0.720  0.00  0.00    +0.066 A 
ATOM      9  C   UNL     1      -2.603  -8.400  -2.007  0.00  0.00    +0.029 A 
ATOM     10  C   UNL     1      -1.788  -8.895  -3.041  0.00  0.00    +0.025 A 
ATOM     11  C   UNL     1      -0.890  -9.981  -2.833  0.00  0.00    +0.030 A 
ATOM     19  C   UNL     1      -0.863 -10.574  -1.535  0.00  0.00    +0.025 A 
ATOM     20  C   UNL     1      -1.670 -10.055  -0.487  0.00  0.00    +0.029 A 
BRANCH  11  12
ATOM     12  N   UNL     1      -0.074 -10.487  -3.886  0.00  0.00    -0.327 N 
ATOM     13  C   UNL     1      -0.489 -10.202  -5.282  0.00  0.00    +0.120 C 
ATOM     14  C   UNL     1       0.478 -10.742  -6.360  0.00  0.00    +0.103 C 
ATOM     15  N   UNL     1       1.828 -10.278  -6.026  0.00  0.00    -0.302 NA
ATOM     16  C   UNL     1       2.743 -10.498  -7.138  0.00  0.00    +0.105 C 
ATOM     17  C   UNL     1       2.271 -10.971  -4.805  0.00  0.00    +0.103 C 
ATOM     18  C   UNL     1       1.385 -10.526  -3.605  0.00  0.00    +0.120 C 
ENDBRANCH  11  12
ENDBRANCH   7   8
TORSDOF 6
