REMARK  Name = 2brn_ligand
REMARK  7 active torsions:
REMARK  status: ('A' for Active; 'I' for Inactive)
REMARK    1  A    between atoms: C15_6  and  C7_7
REMARK    2  A    between atoms: C4_9  and  N10_10
REMARK    3  A    between atoms: N10_10  and  C11_11
REMARK    4  A    between atoms: C11_11  and  C12_12
REMARK    5  A    between atoms: C12_12  and  C14_13
REMARK    6  A    between atoms: C12_12  and  O13_14
REMARK    7  A    between atoms: C8_20  and  C16_21
REMARK                            x       y       z     vdW  Elec       q    Type
REMARK                         _______ _______ _______ _____ _____    ______ ____
ROOT
ATOM      3  C   UNL     1       3.329  -4.581  19.161  0.00  0.00    +0.007 A 
ATOM      4  C   UNL     1       2.310  -3.753  19.643  0.00  0.00    +0.083 A 
ATOM     11  N   UNL     1       2.907  -2.602  20.053  0.00  0.00    -0.256 N 
ATOM     12  H   UNL     1       2.431  -1.826  20.535  0.00  0.00    +0.231 HD
ATOM     13  C   UNL     1       4.236  -2.630  19.729  0.00  0.00    +0.140 A 
ATOM     14  N   UNL     1       5.208  -1.734  19.908  0.00  0.00    -0.274 NA
ATOM     15  C   UNL     1       6.459  -1.994  19.531  0.00  0.00    +0.150 A 
ATOM     16  N   UNL     1       6.771  -3.162  18.938  0.00  0.00    -0.272 NA
ATOM     17  C   UNL     1       5.826  -4.104  18.742  0.00  0.00    +0.122 A 
ATOM     25  C   UNL     1       4.521  -3.842  19.132  0.00  0.00    +0.060 A 
ENDROOT
BRANCH   3   2
ATOM      1  C   UNL     1       3.891  -6.935  18.934  0.00  0.00    -0.004 A 
ATOM      2  C   UNL     1       3.126  -5.834  18.554  0.00  0.00    -0.035 A 
ATOM     26  C   UNL     1       2.143  -5.978  17.570  0.00  0.00    -0.004 A 
ATOM     27  C   UNL     1       1.929  -7.224  16.965  0.00  0.00    -0.006 A 
ATOM     28  C   UNL     1       2.703  -8.323  17.339  0.00  0.00    -0.009 A 
ATOM     29  C   UNL     1       3.684  -8.180  18.324  0.00  0.00    -0.006 A 
ENDBRANCH   3   2
BRANCH   4   5
ATOM      5  C   UNL     1       0.966  -4.082  19.880  0.00  0.00    +0.008 A 
ATOM      6  C   UNL     1       0.198  -3.218  20.643  0.00  0.00    +0.010 A 
ATOM      7  C   UNL     1      -1.118  -3.536  20.973  0.00  0.00    -0.000 A 
ATOM      8  C   UNL     1      -1.666  -4.751  20.554  0.00  0.00    -0.001 A 
ATOM      9  C   UNL     1      -0.886  -5.648  19.817  0.00  0.00    -0.000 A 
ATOM     10  C   UNL     1       0.452  -5.344  19.532  0.00  0.00    +0.010 A 
ENDBRANCH   4   5
BRANCH  17  18
ATOM     18  N   UNL     1       6.161  -5.300  18.163  0.00  0.00    -0.299 N 
ATOM     19  H   UNL     1       6.051  -6.173  18.699  0.00  0.00    +0.187 HD
BRANCH  18  20
ATOM     20  C   UNL     1       6.683  -5.355  16.767  0.00  0.00    +0.166 C 
BRANCH  20  21
ATOM     21  C   UNL     1       8.111  -4.750  16.816  0.00  0.00    +0.134 C 
ATOM     24  C   UNL     1       9.049  -5.449  15.829  0.00  0.00    +0.039 C 
BRANCH  21  22
ATOM     22  O   UNL     1       8.084  -3.306  16.628  0.00  0.00    -0.390 OA
ATOM     23  H   UNL     1       7.491  -2.916  17.259  0.00  0.00    +0.210 HD
ENDBRANCH  21  22
ENDBRANCH  20  21
ENDBRANCH  18  20
ENDBRANCH  17  18
TORSDOF 6
