REMARK  Name = CKN
REMARK  5 active torsions:
REMARK  status: ('A' for Active; 'I' for Inactive)
REMARK    1  A    between atoms: C1_1  and  C2_2
REMARK    2  A    between atoms: C1_1  and  C20_16
REMARK    3  A    between atoms: C9_7  and  N4_28
REMARK    4  A    between atoms: C20_16  and  C21_17
REMARK    5  A    between atoms: N3_26  and  C6_27
REMARK                            x       y       z     vdW  Elec       q    Type
REMARK                         _______ _______ _______ _____ _____    ______ ____
ROOT
ATOM      2  C   UNL     1     -15.729 -38.708 -10.990  0.00  0.00    +0.000 A 
ATOM      3  C   UNL     1     -14.588 -38.407 -10.165  0.00  0.00    +0.018 A 
ATOM      4  C   UNL     1     -15.014 -38.113  -8.917  0.00  0.00    +0.100 A 
ATOM      5  N   UNL     1     -16.409 -38.206  -8.924  0.00  0.00    -0.224 N 
ATOM      6  N   UNL     1     -17.234 -37.971  -7.836  0.00  0.00    -0.142 NA
ATOM      7  C   UNL     1     -18.555 -38.121  -8.132  0.00  0.00    +0.221 A 
ATOM      8  N   UNL     1     -19.097 -38.432  -9.313  0.00  0.00    -0.205 NA
ATOM      9  C   UNL     1     -18.260 -38.643 -10.350  0.00  0.00    +0.167 A 
ATOM     10  N   UNL     1     -18.801 -38.956 -11.543  0.00  0.00    -0.221 NA
ATOM     26  C   UNL     1     -16.843 -38.586 -10.182  0.00  0.00    +0.112 A 
ENDROOT
BRANCH  10  11
ATOM     11  C   UNL     1     -20.221 -39.028 -11.864  0.00  0.00    +0.094 C 
ATOM     12  C   UNL     1     -20.759 -37.640 -12.196  0.00  0.00    +0.023 C 
ATOM     13  C   UNL     1     -22.263 -37.676 -12.494  0.00  0.00    +0.018 C 
ATOM     14  C   UNL     1     -22.596 -38.686 -13.596  0.00  0.00    +0.058 C 
ATOM     15  C   UNL     1     -21.973 -40.073 -13.346  0.00  0.00    +0.018 C 
ATOM     25  C   UNL     1     -20.478 -39.985 -13.017  0.00  0.00    +0.023 C 
BRANCH  14  16
ATOM     16  N   UNL     1     -24.044 -38.678 -13.895  0.00  0.00    -0.271 NA
ATOM     17  C   UNL     1     -24.866 -39.497 -12.988  0.00  0.00    +0.094 C 
ATOM     18  C   UNL     1     -26.346 -39.261 -13.231  0.00  0.00    +0.111 C 
ATOM     19  N   UNL     1     -26.679 -39.487 -14.648  0.00  0.00    -0.277 N 
ATOM     20  C   UNL     1     -27.754 -40.238 -15.032  0.00  0.00    +0.226 C 
ATOM     21  O   UNL     1     -28.446 -40.810 -14.204  0.00  0.00    -0.275 OA
ATOM     22  C   UNL     1     -28.047 -40.362 -16.498  0.00  0.00    +0.095 C 
ATOM     23  C   UNL     1     -25.829 -38.726 -15.576  0.00  0.00    +0.111 C 
ATOM     24  C   UNL     1     -24.362 -39.000 -15.294  0.00  0.00    +0.094 C 
ENDBRANCH  14  16
ENDBRANCH  10  11
BRANCH   2   1
ATOM      1  C   UNL     1     -15.739 -39.167 -12.427  0.00  0.00    +0.033 C 
ATOM     27  C   UNL     1     -14.863 -40.402 -12.648  0.00  0.00    +0.005 C 
BRANCH   1  28
ATOM     28  C   UNL     1     -15.381 -38.050 -13.413  0.00  0.00    +0.093 C 
BRANCH  28  29
ATOM     29  C   UNL     1     -16.557 -37.417 -14.125  0.00  0.00    +0.261 C 
ATOM     30  O   UNL     1     -17.675 -37.946 -14.103  0.00  0.00    -0.272 OA
ATOM     31  N   UNL     1     -16.309 -36.291 -14.774  0.00  0.00    -0.088 NA
ENDBRANCH  28  29
ENDBRANCH   1  28
ENDBRANCH   2   1
TORSDOF 5
