REMARK  Name = 2pe1_ligand
REMARK  4 active torsions:
REMARK  status: ('A' for Active; 'I' for Inactive)
REMARK    1  A    between atoms: C21_5  and  C19_6
REMARK    2  A    between atoms: C19_6  and  C20_7
REMARK    3  A    between atoms: C19_6  and  C5_8
REMARK    4  A    between atoms: C9_17  and  N12_18
REMARK                            x       y       z     vdW  Elec       q    Type
REMARK                         _______ _______ _______ _____ _____    ______ ____
ROOT
ATOM      5  C   UNL     1      -7.025  42.804  44.764  0.00  0.00    +0.163 C 
ATOM      6  C   UNL     1      -8.210  42.057  44.668  0.00  0.00    +0.210 C 
ATOM      7  N   UNL     1      -9.186  42.807  44.162  0.00  0.00    -0.243 N 
ATOM      8  H   UNL     1     -10.124  42.502  43.996  0.00  0.00    +0.221 HD
ATOM      9  C   UNL     1      -8.715  44.035  43.911  0.00  0.00    +0.058 A 
ATOM     10  C   UNL     1      -9.340  45.167  43.364  0.00  0.00    -0.013 A 
ATOM     11  C   UNL     1      -8.618  46.354  43.174  0.00  0.00    -0.018 A 
ATOM     12  C   UNL     1      -7.254  46.428  43.532  0.00  0.00    +0.046 A 
ATOM     20  C   UNL     1      -6.632  45.293  44.086  0.00  0.00    -0.008 A 
ATOM     21  O   UNL     1      -8.381  40.894  45.033  0.00  0.00    -0.390 OA
ATOM     22  C   UNL     1      -7.350  44.088  44.277  0.00  0.00    -0.008 A 
ENDROOT
BRANCH  12  13
ATOM     13  N   UNL     1      -6.518  47.559  43.385  0.00  0.00    -0.229 N 
ATOM     14  H   UNL     1      -5.571  47.521  43.705  0.00  0.00    +0.221 HD
ATOM     15  C   UNL     1      -6.931  48.737  42.850  0.00  0.00    +0.281 C 
ATOM     16  N   UNL     1      -6.027  49.708  42.830  0.00  0.00    -0.282 N 
ATOM     17  H   UNL     1      -5.110  49.545  43.195  0.00  0.00    +0.181 HD
ATOM     18  H   UNL     1      -6.262  50.603  42.450  0.00  0.00    +0.181 HD
ATOM     19  O   UNL     1      -8.048  48.911  42.349  0.00  0.00    -0.392 OA
ENDBRANCH  12  13
BRANCH   5   4
ATOM      4  C   UNL     1      -5.728  42.358  45.250  0.00  0.00    +0.087 C 
ATOM     23  C   UNL     1      -4.577  43.372  45.419  0.00  0.00    +0.030 C 
BRANCH   4   3
ATOM      1  N   UNL     1      -6.266  39.961  45.557  0.00  0.00    -0.293 N 
ATOM      2  H   UNL     1      -7.238  39.976  45.216  0.00  0.00    +0.231 HD
ATOM      3  C   UNL     1      -5.444  41.011  45.613  0.00  0.00    +0.039 A 
ATOM     24  C   UNL     1      -4.281  40.566  46.109  0.00  0.00    -0.071 A 
ATOM     25  C   UNL     1      -4.396  39.265  46.356  0.00  0.00    -0.074 A 
ATOM     26  C   UNL     1      -5.621  38.890  46.016  0.00  0.00    +0.073 A 
ENDBRANCH   4   3
ENDBRANCH   5   4
TORSDOF 3
