REMARK  Name = EAM
REMARK  5 active torsions:
REMARK  status: ('A' for Active; 'I' for Inactive)
REMARK    1  A    between atoms: C7_7  and  C6_8
REMARK    2  A    between atoms: C15_14  and  O2_15
REMARK    3  A    between atoms: C5_24  and  C4_25
REMARK    4  A    between atoms: C4_25  and  C3_26
REMARK    5  A    between atoms: N1_28  and  C2_29
REMARK                            x       y       z     vdW  Elec       q    Type
REMARK                         _______ _______ _______ _____ _____    ______ ____
ROOT
ATOM      6  C   UNL     1      26.663  50.490  -2.501  0.00  0.00    +0.078 C 
ATOM      7  C   UNL     1      27.272  50.437  -1.135  0.00  0.00    +0.036 A 
ATOM      8  C   UNL     1      26.501  50.146  -0.008  0.00  0.00    +0.068 A 
ATOM      9  C   UNL     1      26.942  50.562   1.250  0.00  0.00    +0.021 A 
ATOM     10  C   UNL     1      28.176  51.183   1.422  0.00  0.00    +0.038 A 
ATOM     11  C   UNL     1      28.986  51.423   0.312  0.00  0.00    +0.139 A 
ATOM     14  N   UNL     1      25.199  49.554  -0.070  0.00  0.00    -0.279 N 
ATOM     15  C   UNL     1      24.644  48.484   0.599  0.00  0.00    +0.147 A 
ATOM     16  C   UNL     1      25.336  47.581   1.553  0.00  0.00    +0.074 C 
ATOM     17  N   UNL     1      23.383  48.373   0.257  0.00  0.00    -0.133 NA
ATOM     18  N   UNL     1      23.088  49.397  -0.656  0.00  0.00    -0.131 NA
ATOM     19  C   UNL     1      24.184  50.097  -0.826  0.00  0.00    +0.170 A 
ATOM     20  C   UNL     1      24.529  51.247  -1.765  0.00  0.00    +0.171 C 
ATOM     27  C   UNL     1      28.532  51.031  -0.944  0.00  0.00    +0.040 A 
ATOM     28  N   UNL     1      25.434  50.735  -2.801  0.00  0.00    -0.264 NA
ENDROOT
BRANCH   6   5
ATOM      1 CL   UNL     1      30.064  48.518  -7.050  0.00  0.00    -0.082 Cl
ATOM      2  C   UNL     1      29.076  49.115  -5.748  0.00  0.00    +0.058 A 
ATOM      3  C   UNL     1      29.438  48.830  -4.443  0.00  0.00    +0.011 A 
ATOM      4  C   UNL     1      28.650  49.282  -3.402  0.00  0.00    +0.002 A 
ATOM      5  C   UNL     1      27.518  50.066  -3.650  0.00  0.00    +0.017 A 
ATOM     29  C   UNL     1      27.149  50.323  -4.976  0.00  0.00    +0.002 A 
ATOM     30  C   UNL     1      27.937  49.864  -6.032  0.00  0.00    +0.011 A 
ENDBRANCH   6   5
BRANCH  11  12
ATOM     12  O   UNL     1      30.221  52.045   0.401  0.00  0.00    -0.471 OA
ATOM     13  C   UNL     1      30.829  52.239   1.680  0.00  0.00    +0.253 C 
ENDBRANCH  11  12
BRANCH  20  21
ATOM     21  C   UNL     1      23.293  51.752  -2.517  0.00  0.00    +0.119 C 
BRANCH  21  22
ATOM     22  C   UNL     1      23.619  52.941  -3.406  0.00  0.00    +0.244 C 
ATOM     23  O   UNL     1      24.611  53.627  -3.196  0.00  0.00    -0.273 OA
ATOM     24  N   UNL     1      22.776  53.200  -4.407  0.00  0.00    -0.205 NA
BRANCH  24  25
ATOM     25  C   UNL     1      23.004  54.319  -5.312  0.00  0.00    +0.115 C 
ATOM     26  C   UNL     1      21.771  54.694  -6.108  0.00  0.00    +0.025 C 
ENDBRANCH  24  25
ENDBRANCH  21  22
ENDBRANCH  20  21
TORSDOF 5
