REMARK  Name = 3T8M
REMARK  7 active torsions:
REMARK  status: ('A' for Active; 'I' for Inactive)
REMARK    1  A    between atoms: C_1  and  N_2
REMARK    2  A    between atoms: C_3  and  C_5
REMARK    3  A    between atoms: C_17  and  C_19
REMARK    4  A    between atoms: N_21  and  C_22
REMARK    5  A    between atoms: N_21  and  C_23
REMARK    6  A    between atoms: C_26  and  C_30
REMARK    7  A    between atoms: N_35  and  C_38
REMARK                            x       y       z     vdW  Elec       q    Type
REMARK                         _______ _______ _______ _____ _____    ______ ____
ROOT
ATOM     14  C   UNL     1      24.967  61.280  21.135  0.00  0.00    +0.257 C 
ATOM     15  N   UNL     1      25.357  62.169  20.149  0.00  0.00    -0.269 N 
ATOM     32  C   UNL     1      26.720  62.128  19.669  0.00  0.00    +0.139 C 
ATOM     33  O   UNL     1      25.817  60.519  21.540  0.00  0.00    -0.269 OA
ENDROOT
BRANCH  14  13
ATOM      5  C   UNL     1      16.969  62.553  22.432  0.00  0.00    +0.040 A 
ATOM      6  C   UNL     1      17.335  61.388  23.127  0.00  0.00    +0.059 A 
ATOM      7  C   UNL     1      18.643  60.927  23.155  0.00  0.00    +0.129 A 
ATOM      8  O   UNL     1      18.981  59.803  23.829  0.00  0.00    -0.491 OA
ATOM      9  C   UNL     1      19.990  59.879  24.813  0.00  0.00    +0.234 C 
ATOM     10  C   UNL     1      21.350  59.449  24.269  0.00  0.00    +0.077 C 
ATOM     11  C   UNL     1      21.870  60.331  23.151  0.00  0.00    -0.029 A 
ATOM     12  C   UNL     1      23.208  60.306  22.749  0.00  0.00    +0.025 A 
ATOM     13  C   UNL     1      23.604  61.150  21.729  0.00  0.00    +0.075 A 
ATOM     34  S   UNL     1      22.152  62.010  21.261  0.00  0.00    -0.083 S 
ATOM     35  C   UNL     1      21.098  61.243  22.416  0.00  0.00    +0.027 A 
ATOM     36  C   UNL     1      19.649  61.646  22.467  0.00  0.00    +0.031 A 
ATOM     37  C   UNL     1      19.277  62.798  21.761  0.00  0.00    +0.013 A 
ATOM     38  C   UNL     1      17.970  63.259  21.746  0.00  0.00    +0.014 A 
BRANCH   5   4
ATOM      1  C   UNL     1      13.176  62.610  23.159  0.00  0.00    +0.128 C 
ATOM      2  N   UNL     1      14.611  62.306  23.068  0.00  0.00    -0.314 N 
ATOM      3  H   UNL     1      14.948  61.422  23.568  0.00  0.00    +0.149 HD
ATOM      4  C   UNL     1      15.558  63.038  22.409  0.00  0.00    +0.244 C 
ATOM     39  O   UNL     1      15.307  64.069  21.798  0.00  0.00    -0.270 OA
ENDBRANCH   5   4
ENDBRANCH  14  13
BRANCH  15  16
ATOM     16  C   UNL     1      24.521  63.115  19.510  0.00  0.00    +0.055 A 
ATOM     17  C   UNL     1      23.728  62.687  18.441  0.00  0.00    +0.063 A 
ATOM     18 CL   UNL     1      23.795  61.029  17.967  0.00  0.00    -0.082 Cl
ATOM     19  C   UNL     1      22.847  63.516  17.766  0.00  0.00    +0.035 A 
ATOM     20  C   UNL     1      22.743  64.862  18.126  0.00  0.00    +0.038 A 
ATOM     30  C   UNL     1      23.562  65.312  19.193  0.00  0.00    +0.015 A 
ATOM     31  C   UNL     1      24.432  64.463  19.877  0.00  0.00    +0.026 A 
BRANCH  20  21
ATOM     21  C   UNL     1      21.807  65.789  17.409  0.00  0.00    +0.247 C 
ATOM     22  N   UNL     1      20.656  66.239  17.983  0.00  0.00    -0.295 N 
ATOM     23  C   UNL     1      20.237  65.818  19.326  0.00  0.00    +0.123 C 
ATOM     24  C   UNL     1      19.798  67.027  20.159  0.00  0.00    +0.103 C 
ATOM     25  N   UNL     1      18.818  67.846  19.427  0.00  0.00    -0.302 NA
ATOM     26  C   UNL     1      18.357  68.956  20.274  0.00  0.00    +0.105 C 
ATOM     27  C   UNL     1      19.445  68.354  18.206  0.00  0.00    +0.103 C 
ATOM     28  C   UNL     1      19.740  67.162  17.281  0.00  0.00    +0.123 C 
ATOM     29  O   UNL     1      22.066  66.176  16.291  0.00  0.00    -0.270 OA
ENDBRANCH  20  21
ENDBRANCH  15  16
TORSDOF 4
