REMARK  Name = 4FKT
REMARK  9 active torsions:
REMARK  status: ('A' for Active; 'I' for Inactive)
REMARK    1  A    between atoms: S_1  and  N_5
REMARK    2  A    between atoms: S_1  and  C_12
REMARK    3  A    between atoms: C_2  and  N_46
REMARK    4  A    between atoms: C_4  and  N_46
REMARK    5  A    between atoms: N_5  and  C_10
REMARK    6  A    between atoms: C_7  and  C_10
REMARK    7  A    between atoms: C_7  and  N_46
REMARK    8  A    between atoms: N_8  and  C_15
REMARK    9  A    between atoms: N_8  and  C_16
REMARK                            x       y       z     vdW  Elec       q    Type
REMARK                         _______ _______ _______ _____ _____    ______ ____
ROOT
ATOM      2  C   UNL     1       5.624  -9.748   7.364  0.00  0.00    +0.105 A 
ATOM      3  C   UNL     1       4.813  -9.605   8.470  0.00  0.00    +0.030 A 
ATOM      4  C   UNL     1       3.828  -8.640   8.465  0.00  0.00    +0.025 A 
ATOM      5  C   UNL     1       3.657  -7.816   7.359  0.00  0.00    +0.031 A 
ATOM      6  C   UNL     1       4.506  -7.944   6.270  0.00  0.00    +0.025 A 
ATOM     21  C   UNL     1       5.474  -8.931   6.256  0.00  0.00    +0.030 A 
ENDROOT
BRANCH   2   1
ATOM      1  S   UNL     1       6.914 -10.935   7.401  0.00  0.00    +0.058 S 
ATOM     22  O   UNL     1       7.601 -10.887   6.146  0.00  0.00    -0.153 OA
ATOM     30  O   UNL     1       7.650 -10.714   8.610  0.00  0.00    -0.153 OA
BRANCH   1  23
ATOM     23  N   UNL     1       6.239 -12.398   7.523  0.00  0.00    -0.189 NA
ATOM     24  H   UNL     1       6.668 -13.176   8.014  0.00  0.00    +0.148 HD
BRANCH  23  25
ATOM     25  C   UNL     1       4.927 -12.733   6.952  0.00  0.00    +0.121 C 
BRANCH  25  26
ATOM     26  C   UNL     1       4.843 -12.614   5.440  0.00  0.00    +0.100 C 
BRANCH  26  27
ATOM     27  N   UNL     1       4.493 -13.899   4.751  0.00  0.00    -0.307 NA
ATOM     28  C   UNL     1       5.605 -14.888   4.809  0.00  0.00    +0.104 C 
ATOM     29  C   UNL     1       4.075 -13.672   3.342  0.00  0.00    +0.104 C 
ENDBRANCH  26  27
ENDBRANCH  25  26
ENDBRANCH  23  25
ENDBRANCH   1  23
ENDBRANCH   2   1
BRANCH   5   7
ATOM      7  N   UNL     1       2.651  -6.823   7.361  0.00  0.00    -0.320 N 
ATOM      8  H   UNL     1       2.754  -6.123   6.633  0.00  0.00    +0.152 HD
BRANCH   7   9
ATOM      9  C   UNL     1       1.645  -6.741   8.217  0.00  0.00    +0.085 C 
ATOM     10  C   UNL     1       0.780  -5.675   8.280  0.00  0.00    +0.060 C 
ATOM     11  C   UNL     1      -0.362  -5.455   9.126  0.00  0.00    +0.009 A 
ATOM     12  C   UNL     1      -1.062  -6.240  10.041  0.00  0.00    +0.010 A 
ATOM     13  C   UNL     1      -2.157  -5.701  10.712  0.00  0.00    +0.001 A 
ATOM     14  C   UNL     1      -2.521  -4.366  10.521  0.00  0.00    +0.002 A 
ATOM     15  C   UNL     1      -1.823  -3.565   9.620  0.00  0.00    +0.024 A 
ATOM     16  C   UNL     1      -0.781  -4.127   8.903  0.00  0.00    +0.042 A 
ATOM     17  N   UNL     1       0.038  -3.546   7.912  0.00  0.00    -0.281 N 
ATOM     18  H   UNL     1      -0.067  -2.588   7.595  0.00  0.00    +0.155 HD
ATOM     19  C   UNL     1       0.978  -4.416   7.474  0.00  0.00    +0.250 C 
ATOM     20  O   UNL     1       1.843  -4.262   6.597  0.00  0.00    -0.270 OA
ENDBRANCH   7   9
ENDBRANCH   5   7
TORSDOF 7
