REMARK  Name = 2wtw_ligand
REMARK  3 active torsions:
REMARK  status: ('A' for Active; 'I' for Inactive)
REMARK    1  A    between atoms: C15_2  and  C16_23
REMARK    2  A    between atoms: C02_11  and  C04_13
REMARK    3  A    between atoms: C07_16  and  N08_17
REMARK                            x       y       z     vdW  Elec       q    Type
REMARK                         _______ _______ _______ _____ _____    ______ ____
ROOT
ATOM      1  C   UNL     1      14.560  62.259  66.308  0.00  0.00    +0.206 C 
ATOM      2  N   UNL     1      14.812  63.528  65.651  0.00  0.00    +0.265 N 
ATOM      3  H   UNL     1      14.201  64.166  66.136  0.00  0.00    +0.206 HD
ATOM      4  H   UNL     1      15.770  63.729  65.893  0.00  0.00    +0.206 HD
ATOM      5  C   UNL     1      14.730  63.907  64.439  0.00  0.00    +0.168 C 
ATOM     14  C   UNL     1      15.054  63.144  63.169  0.00  0.00    +0.028 A 
ATOM     15  C   UNL     1      14.735  61.781  63.092  0.00  0.00    +0.011 A 
ATOM     16  C   UNL     1      14.113  60.967  64.061  0.00  0.00    +0.059 A 
ATOM     17  N   UNL     1      13.584  59.926  63.443  0.00  0.00    -0.256 NA
ATOM     18  C   UNL     1      12.873  58.989  64.172  0.00  0.00    +0.203 A 
ATOM     19  N   UNL     1      12.725  59.144  65.551  0.00  0.00    -0.261 NA
ATOM     20  C   UNL     1      13.269  60.214  66.175  0.00  0.00    +0.103 A 
ATOM     21  N   UNL     1      12.307  57.833  63.496  0.00  0.00    -0.244 N 
ATOM     22  H   UNL     1      11.942  57.177  64.201  0.00  0.00    +0.217 HD
ATOM     32  C   UNL     1      15.013  61.028  61.933  0.00  0.00    +0.008 A 
ATOM     33  C   UNL     1      15.624  61.647  60.837  0.00  0.00    +0.006 A 
ATOM     34  C   UNL     1      15.949  63.013  60.911  0.00  0.00    +0.037 A 
ATOM     35 CL   UNL     1      16.731  63.811  59.526  0.00  0.00    -0.070 Cl
ATOM     36  C   UNL     1      15.660  63.759  62.071  0.00  0.00    +0.022 A 
ATOM     37  C   UNL     1      13.951  61.135  65.452  0.00  0.00    +0.046 A 
ENDROOT
BRANCH   5   6
ATOM      6  C   UNL     1      14.263  65.308  64.045  0.00  0.00    +0.084 A 
ATOM      7  C   UNL     1      14.919  66.444  64.530  0.00  0.00    +0.139 A 
ATOM      8  F   UNL     1      15.951  66.323  65.412  0.00  0.00    -0.190 F 
ATOM      9  C   UNL     1      14.501  67.720  64.137  0.00  0.00    +0.017 A 
ATOM     10  C   UNL     1      13.429  67.873  63.254  0.00  0.00    -0.018 A 
ATOM     11  C   UNL     1      12.766  66.743  62.766  0.00  0.00    +0.017 A 
ATOM     12  C   UNL     1      13.186  65.463  63.160  0.00  0.00    +0.139 A 
ATOM     13  F   UNL     1      12.522  64.361  62.701  0.00  0.00    -0.190 F 
ENDBRANCH   5   6
BRANCH  21  23
ATOM     23  C   UNL     1      12.077  57.281  62.172  0.00  0.00    +0.067 A 
ATOM     24  C   UNL     1      11.533  56.001  62.015  0.00  0.00    +0.020 A 
ATOM     25  C   UNL     1      11.385  55.460  60.729  0.00  0.00    +0.005 A 
ATOM     26  C   UNL     1      11.799  56.188  59.609  0.00  0.00    -0.002 A 
ATOM     27  C   UNL     1      12.358  57.460  59.766  0.00  0.00    +0.005 A 
ATOM     31  C   UNL     1      12.499  58.001  61.048  0.00  0.00    +0.020 A 
BRANCH  26  28
ATOM     28  C   UNL     1      11.637  55.583  58.217  0.00  0.00    +0.055 C 
ATOM     29  O   UNL     1      11.080  54.304  58.079  0.00  0.00    -0.564 OA
ATOM     30  O   UNL     1      11.975  56.188  57.255  0.00  0.00    -0.564 OA
ENDBRANCH  26  28
ENDBRANCH  21  23
TORSDOF 3
