REMARK  Name = 3C3C
REMARK  8 active torsions:
REMARK  status: ('A' for Active; 'I' for Inactive)
REMARK    1  A    between atoms: P_2  and  O_5
REMARK    2  A    between atoms: O_5  and  P_6
REMARK    3  A    between atoms: P_6  and  O_9
REMARK    4  A    between atoms: O_9  and  C_10
REMARK    5  A    between atoms: C_10  and  C_11
REMARK    6  A    between atoms: C_13  and  O_14
REMARK    7  A    between atoms: C_15  and  O_16
REMARK    8  A    between atoms: C_17  and  N_18
REMARK                            x       y       z     vdW  Elec       q    Type
REMARK                         _______ _______ _______ _____ _____    ______ ____
ROOT
ATOM      7  C   UNL     1      12.571  -0.281  33.607  0.00  0.00    +0.178 C 
ATOM      8  C   UNL     1      13.789   0.610  33.851  0.00  0.00    +0.178 C 
ATOM      9  C   UNL     1      14.626  -0.179  34.860  0.00  0.00    +0.195 C 
ATOM     10  C   UNL     1      13.810  -1.450  35.098  0.00  0.00    +0.255 C 
ATOM     25  O   UNL     1      12.460  -1.055  34.811  0.00  0.00    -0.346 OA
ENDROOT
BRANCH  10  11
ATOM     11  N   UNL     1      13.917  -1.846  36.520  0.00  0.00    -0.270 N 
ATOM     12  C   UNL     1      13.750  -0.891  37.529  0.00  0.00    +0.096 C 
ATOM     13  C   UNL     1      13.851  -1.262  38.865  0.00  0.00    +0.061 C 
ATOM     14  C   UNL     1      14.117  -2.583  39.206  0.00  0.00    +0.123 C 
ATOM     15  N   UNL     1      14.212  -2.932  40.486  0.00  0.00    -0.343 N 
ATOM     16  H   UNL     1      14.084  -2.196  41.252  0.00  0.00    +0.144 HD
ATOM     17  H   UNL     1      14.417  -3.949  40.750  0.00  0.00    +0.144 HD
ATOM     18  N   UNL     1      14.285  -3.546  38.205  0.00  0.00    -0.178 NA
ATOM     19  C   UNL     1      14.185  -3.177  36.859  0.00  0.00    +0.352 C 
ATOM     20  O   UNL     1      14.332  -4.020  35.975  0.00  0.00    -0.244 OA
ENDBRANCH  10  11
BRANCH   9  21
ATOM     21  O   UNL     1      15.884  -0.521  34.272  0.00  0.00    -0.385 OA
ATOM     22  H   UNL     1      15.723  -1.108  33.416  0.00  0.00    +0.210 HD
ENDBRANCH   9  21
BRANCH   8  23
ATOM     23  O   UNL     1      14.524   0.759  32.633  0.00  0.00    -0.386 OA
ATOM     24  H   UNL     1      14.842  -0.184  32.298  0.00  0.00    +0.210 HD
ENDBRANCH   8  23
BRANCH   7   6
ATOM      6  C   UNL     1      11.324   0.590  33.444  0.00  0.00    +0.202 C 
BRANCH   6   5
ATOM      5  O   UNL     1      10.187  -0.022  34.057  0.00  0.00    -0.325 OA
BRANCH   5   4
ATOM      4  P   UNL     1       8.758   0.010  33.315  0.00  0.00    +0.215 P 
ATOM     26  O   UNL     1       7.916   1.181  34.028  0.00  0.00    -0.437 OA
ATOM     27  O   UNL     1       8.065  -1.297  33.347  0.00  0.00    -0.517 OA
BRANCH   4   3
ATOM      3  O   UNL     1       9.050   0.525  31.818  0.00  0.00    -0.314 OA
BRANCH   3   2
ATOM      1  O   UNL     1      10.145   0.418  29.495  0.00  0.00    -0.577 OA
ATOM      2  P   UNL     1       9.619  -0.497  30.711  0.00  0.00    -0.007 P 
ATOM     28  O   UNL     1       8.338  -1.290  30.144  0.00  0.00    -0.577 OA
ATOM     29  O   UNL     1      10.664  -1.399  31.246  0.00  0.00    -0.637 OA
ENDBRANCH   3   2
ENDBRANCH   4   3
ENDBRANCH   5   4
ENDBRANCH   6   5
ENDBRANCH   7   6
TORSDOF 8
