REMARK  Name = 3mpm_ligand
REMARK  6 active torsions:
REMARK  status: ('A' for Active; 'I' for Inactive)
REMARK    1  A    between atoms: C5_4  and  C27_18
REMARK    2  A    between atoms: C10_8  and  C15_11
REMARK    3  A    between atoms: C11_9  and  N12_10
REMARK    4  A    between atoms: C20_14  and  O25_17
REMARK    5  A    between atoms: C30_20  and  N37_24
REMARK    6  A    between atoms: N44_27  and  C51_30
REMARK                            x       y       z     vdW  Elec       q    Type
REMARK                         _______ _______ _______ _____ _____    ______ ____
ROOT
ATOM      1  N   UNL     1      24.687   9.650  51.449  0.00  0.00    -0.177 N 
ATOM      2  C   UNL     1      23.727   8.831  51.792  0.00  0.00    +0.184 A 
ATOM      6  C   UNL     1      22.664   9.329  52.482  0.00  0.00    +0.081 A 
ATOM     15  C   UNL     1      22.531  10.791  52.729  0.00  0.00    +0.126 A 
ATOM     16  N   UNL     1      23.491  11.530  52.312  0.00  0.00    -0.268 NA
ATOM     17  C   UNL     1      24.663  10.932  51.714  0.00  0.00    +0.146 A 
ATOM     18  C   UNL     1      25.818  11.515  51.321  0.00  0.00    +0.081 A 
ATOM     33  C   UNL     1      26.637  10.395  50.815  0.00  0.00    +0.272 A 
ATOM     34  N   UNL     1      25.915   9.354  50.936  0.00  0.00    -0.176 N 
ATOM     35  H   UNL     1      26.221   8.405  50.678  0.00  0.00    +0.281 HD
ENDROOT
BRANCH   6   7
ATOM      7  C   UNL     1      21.535   8.495  53.014  0.00  0.00    +0.012 A 
ATOM      8  C   UNL     1      20.279   8.391  52.402  0.00  0.00    +0.029 A 
ATOM      9  C   UNL     1      19.296   7.600  53.005  0.00  0.00    +0.050 A 
ATOM     10  C   UNL     1      19.596   6.917  54.209  0.00  0.00    +0.112 A 
ATOM     13  C   UNL     1      20.858   7.021  54.815  0.00  0.00    +0.050 A 
ATOM     14  C   UNL     1      21.824   7.823  54.223  0.00  0.00    +0.029 A 
BRANCH  10  11
ATOM     11  O   UNL     1      18.644   6.116  54.822  0.00  0.00    -0.317 OA
ATOM     12  H   UNL     1      19.011   5.738  55.612  0.00  0.00    +0.259 HD
ENDBRANCH  10  11
ENDBRANCH   6   7
BRANCH  18  19
ATOM     19  C   UNL     1      26.236  12.972  51.399  0.00  0.00    -0.003 A 
ATOM     20  C   UNL     1      25.365  13.953  51.901  0.00  0.00    +0.010 A 
ATOM     21  C   UNL     1      25.778  15.294  51.994  0.00  0.00    +0.004 A 
ATOM     22  C   UNL     1      27.066  15.643  51.583  0.00  0.00    +0.033 A 
ATOM     23  C   UNL     1      27.968  14.693  51.092  0.00  0.00    +0.052 A 
ATOM     32  C   UNL     1      27.535  13.358  51.002  0.00  0.00    +0.030 A 
BRANCH  23  24
ATOM     24  N   UNL     1      29.281  15.113  50.672  0.00  0.00    -0.296 N 
ATOM     25  C   UNL     1      29.323  15.991  49.472  0.00  0.00    +0.181 C 
ATOM     26  C   UNL     1      30.721  16.576  49.124  0.00  0.00    +0.155 C 
ATOM     27  N   UNL     1      31.745  15.504  49.086  0.00  0.00    +0.236 N 
ATOM     28  H   UNL     1      31.492  14.895  48.323  0.00  0.00    +0.203 HD
ATOM     29  C   UNL     1      33.121  16.000  48.802  0.00  0.00    +0.190 C 
ATOM     30  C   UNL     1      31.738  14.679  50.325  0.00  0.00    +0.155 C 
ATOM     31  C   UNL     1      30.327  14.069  50.590  0.00  0.00    +0.181 C 
ENDBRANCH  23  24
ENDBRANCH  18  19
BRANCH   2   3
ATOM      3  N   UNL     1      23.955   7.555  51.515  0.00  0.00    -0.297 N 
ATOM      4  H   UNL     1      24.837   7.276  51.063  0.00  0.00    +0.196 HD
ATOM      5  H   UNL     1      23.250   6.843  51.752  0.00  0.00    +0.196 HD
ENDBRANCH   2   3
TORSDOF 5
