REMARK  Name = 4QP3
REMARK  6 active torsions:
REMARK  status: ('A' for Active; 'I' for Inactive)
REMARK    1  A    between atoms: CG_1  and  CB_4
REMARK    2  A    between atoms: CB_4  and  CA_5
REMARK    3  A    between atoms: CA_5  and  C_6
REMARK    4  A    between atoms: CA_5  and  N_7
REMARK    5  A    between atoms: C_6  and  O_14
REMARK    6  A    between atoms: N_7  and  C_8
REMARK                            x       y       z     vdW  Elec       q    Type
REMARK                         _______ _______ _______ _____ _____    ______ ____
ROOT
ATOM      8  N   PHE A   1     -16.299 -37.740 -29.150  0.00  0.00    -0.322 N 
ATOM      9  H   PHE A   1     -16.853 -37.427 -30.010  0.00  0.00    +0.148 HD
ENDROOT
BRANCH   8  10
ATOM     10  C   UNK A   0     -16.164 -36.877 -28.073  0.00  0.00    +0.148 A 
ATOM     11  N   UNK A   0     -15.694 -37.305 -26.904  0.00  0.00    -0.219 NA
ATOM     12  C   UNK A   0     -15.555 -36.488 -25.878  0.00  0.00    +0.225 A 
ATOM     13  N   UNK A   0     -15.873 -35.213 -25.946  0.00  0.00    -0.214 NA
ATOM     14  C   UNK A   0     -16.350 -34.690 -27.068  0.00  0.00    +0.183 A 
ATOM     15  N   UNK A   0     -16.760 -33.439 -27.451  0.00  0.00    -0.216 NA
ATOM     16  C   UNK A   0     -17.152 -33.527 -28.754  0.00  0.00    +0.199 A 
ATOM     17  N   UNK A   0     -17.010 -34.745 -29.189  0.00  0.00    -0.340 N 
ATOM     18  H   UNK A   0     -17.246 -35.082 -30.177  0.00  0.00    +0.167 HD
ATOM     19  C   UNK A   0     -16.515 -35.520 -28.192  0.00  0.00    +0.125 A 
ENDBRANCH   8  10
BRANCH   8   7
ATOM      7  CA  PHE A   1     -15.693 -39.075 -29.127  0.00  0.00    +0.101 C 
BRANCH   7   6
ATOM      6  CB  PHE A   1     -16.024 -39.802 -30.426  0.00  0.00    +0.059 C 
BRANCH   6   1
ATOM      1  CG  PHE A   1     -17.394 -40.429 -30.447  0.00  0.00    -0.045 A 
ATOM      2  CD2 PHE A   1     -18.427 -39.798 -31.117  0.00  0.00    +0.003 A 
ATOM      3  CE2 PHE A   1     -19.684 -40.369 -31.155  0.00  0.00    +0.000 A 
ATOM      4  CZ  PHE A   1     -19.901 -41.580 -30.527  0.00  0.00    +0.000 A 
ATOM      5  CE1 PHE A   1     -18.870 -42.215 -29.857  0.00  0.00    +0.000 A 
ATOM     23  CD1 PHE A   1     -17.612 -41.642 -29.821  0.00  0.00    +0.003 A 
ENDBRANCH   6   1
ENDBRANCH   7   6
BRANCH   7  20
ATOM     20  C   PHE A   1     -14.169 -38.952 -29.075  0.00  0.00    +0.178 C 
BRANCH  20  21
ATOM     21  O   PHE A   1     -13.582 -40.170 -29.534  0.00  0.00    -0.393 OA
ATOM     22  H   PHE A   1     -13.892 -40.962 -28.918  0.00  0.00    +0.209 HD
ENDBRANCH  20  21
ENDBRANCH   7  20
ENDBRANCH   8   7
TORSDOF 6
