REMARK  Name = 1okz_ligand
REMARK  6 active torsions:
REMARK  status: ('A' for Active; 'I' for Inactive)
REMARK    1  A    between atoms: O37_1  and  C9_2
REMARK    2  A    between atoms: C21_26  and  C26_36
REMARK    3  A    between atoms: C23_30  and  N4_31
REMARK    4  A    between atoms: N4_31  and  C28_32
REMARK    5  A    between atoms: C22_33  and  O6_34
REMARK    6  A    between atoms: O6_34  and  C27_35
REMARK                            x       y       z     vdW  Elec       q    Type
REMARK                         _______ _______ _______ _____ _____    ______ ____
ROOT
ATOM      3  C   UNL     1      81.128  13.799  11.622  0.00  0.00    +0.274 C 
ATOM      4  C   UNL     1      81.811  15.087  12.083  0.00  0.00    +0.013 A 
ATOM      5  C   UNL     1      81.290  16.377  12.187  0.00  0.00    +0.004 A 
ATOM      6  C   UNL     1      80.107  16.973  11.783  0.00  0.00    -0.007 A 
ATOM      7  C   UNL     1      78.999  16.366  11.196  0.00  0.00    -0.013 A 
ATOM      8  C   UNL     1      77.930  17.180  10.830  0.00  0.00    -0.024 A 
ATOM      9  C   UNL     1      77.988  18.555  11.053  0.00  0.00    -0.018 A 
ATOM     10  C   UNL     1      79.107  19.141  11.643  0.00  0.00    +0.013 A 
ATOM     11  C   UNL     1      80.185  18.344  12.014  0.00  0.00    +0.070 A 
ATOM     12  N   UNL     1      81.398  18.547  12.551  0.00  0.00    -0.229 N 
ATOM     13  C   UNL     1      81.853  19.747  12.937  0.00  0.00    +0.202 C 
ATOM     14  C   UNL     1      80.732  20.611  13.524  0.00  0.00    +0.079 C 
ATOM     15  C   UNL     1      82.419  20.512  11.733  0.00  0.00    +0.227 C 
ATOM     18  C   UNL     1      83.661  21.291  12.177  0.00  0.00    +0.102 C 
ATOM     23  C   UNL     1      84.739  20.294  12.600  0.00  0.00    +0.120 C 
ATOM     24  C   UNL     1      84.178  19.405  13.715  0.00  0.00    +0.260 C 
ATOM     25  N   UNL     1      84.365  17.964  13.438  0.00  0.00    -0.238 N 
ATOM     26  C   UNL     1      83.404  17.144  13.014  0.00  0.00    +0.095 A 
ATOM     27  C   UNL     1      83.932  15.867  12.904  0.00  0.00    -0.002 A 
ATOM     28  C   UNL     1      85.264  15.988  13.278  0.00  0.00    -0.007 A 
ATOM     29  C   UNL     1      86.244  15.003  13.324  0.00  0.00    -0.011 A 
ATOM     30  C   UNL     1      87.526  15.384  13.714  0.00  0.00    -0.023 A 
ATOM     31  C   UNL     1      87.803  16.708  14.047  0.00  0.00    -0.016 A 
ATOM     32  C   UNL     1      86.807  17.682  14.000  0.00  0.00    +0.014 A 
ATOM     33  C   UNL     1      85.523  17.317  13.610  0.00  0.00    +0.068 A 
ATOM     34  O   UNL     1      82.790  19.632  14.017  0.00  0.00    -0.315 OA
ATOM     35  C   UNL     1      82.083  17.407  12.657  0.00  0.00    +0.098 A 
ATOM     36  C   UNL     1      83.130  14.829  12.439  0.00  0.00    +0.035 A 
ATOM     37  C   UNL     1      83.403  13.472  12.290  0.00  0.00    +0.189 C 
ATOM     38  O   UNL     1      84.471  12.895  12.480  0.00  0.00    -0.396 OA
ATOM     39  N   UNL     1      82.277  12.904  11.856  0.00  0.00    -0.253 N 
ATOM     40  H   UNL     1      82.215  11.919  11.697  0.00  0.00    +0.189 HD
ENDROOT
BRANCH  18  19
ATOM     19  N   UNL     1      84.171  22.133  11.085  0.00  0.00    +0.229 N 
ATOM     20  H   UNL     1      85.156  22.244  11.270  0.00  0.00    +0.201 HD
ATOM     21  H   UNL     1      84.046  21.588  10.246  0.00  0.00    +0.201 HD
ATOM     22  C   UNL     1      83.683  23.479  10.751  0.00  0.00    +0.189 C 
ENDBRANCH  18  19
BRANCH   3   1
ATOM      1  O   UNL     1      80.902  13.891  10.214  0.00  0.00    -0.358 OA
ATOM      2  H   UNL     1      80.163  14.465  10.049  0.00  0.00    +0.215 HD
ENDBRANCH   3   1
BRANCH  15  16
ATOM     16  O   UNL     1      82.835  19.573  10.730  0.00  0.00    -0.369 OA
ATOM     17  C   UNL     1      82.223  19.878   9.473  0.00  0.00    +0.195 C 
ENDBRANCH  15  16
TORSDOF 3
