REMARK  Name = 5VND
REMARK  14 active torsions:
REMARK  status: ('A' for Active; 'I' for Inactive)
REMARK    1  A    between atoms: C_5  and  N_21
REMARK    2  A    between atoms: C_6  and  N_27
REMARK    3  A    between atoms: C_9  and  N_30
REMARK    4  A    between atoms: C_11  and  N_30
REMARK    5  A    between atoms: C_12  and  O_37
REMARK    6  A    between atoms: C_13  and  O_37
REMARK    7  A    between atoms: C_15  and  C_16
REMARK    8  A    between atoms: C_15  and  N_18
REMARK    9  A    between atoms: C_16  and  C_17
REMARK   10  A    between atoms: N_22  and  C_23
REMARK   11  A    between atoms: C_23  and  C_24
REMARK   12  A    between atoms: N_33  and  C_34
REMARK   13  A    between atoms: C_39  and  O_42
REMARK   14  A    between atoms: O_42  and  C_43
REMARK                            x       y       z     vdW  Elec       q    Type
REMARK                         _______ _______ _______ _____ _____    ______ ____
ROOT
ATOM     12  N   UNL     1      17.575 -26.912  -8.300  0.00  0.00    -0.227 NA
ATOM     13  C   UNL     1      16.928 -26.363  -9.349  0.00  0.00    +0.158 A 
ATOM     14  N   UNL     1      16.022 -27.251  -9.845  0.00  0.00    -0.219 NA
ATOM     15  C   UNL     1      15.345 -26.887 -10.928  0.00  0.00    +0.200 A 
ATOM     16  N   UNL     1      15.479 -25.678 -11.478  0.00  0.00    -0.334 N 
ATOM     17  H   UNL     1      14.872 -25.440 -12.326  0.00  0.00    +0.168 HD
ATOM     18  C   UNL     1      16.334 -24.742 -11.027  0.00  0.00    +0.111 A 
ATOM     37  C   UNL     1      17.098 -25.094  -9.918  0.00  0.00    +0.090 A 
ENDROOT
BRANCH  12  11
ATOM      8  C   UNL     1      20.543 -24.514  -6.508  0.00  0.00    +0.012 C 
ATOM      9  C   UNL     1      20.688 -25.093  -7.775  0.00  0.00    +0.080 C 
ATOM     10  C   UNL     1      19.694 -25.943  -8.272  0.00  0.00    +0.009 C 
ATOM     11  C   UNL     1      18.523 -26.277  -7.569  0.00  0.00    +0.086 C 
ATOM     38  C   UNL     1      18.309 -25.626  -6.233  0.00  0.00    +0.083 C 
ATOM     39  N   UNL     1      17.235 -25.712  -5.391  0.00  0.00    -0.179 NA
ATOM     44  C   UNL     1      19.365 -24.798  -5.766  0.00  0.00    +0.046 C 
BRANCH   8   7
ATOM      1  C   UNL     1      22.484 -22.533  -4.012  0.00  0.00    +0.103 C 
ATOM      2  N   UNL     1      23.685 -22.182  -4.799  0.00  0.00    -0.300 NA
ATOM      5  C   UNL     1      23.251 -21.795  -6.162  0.00  0.00    +0.103 C 
ATOM      6  C   UNL     1      22.422 -22.868  -6.902  0.00  0.00    +0.120 C 
ATOM      7  N   UNL     1      21.610 -23.712  -6.003  0.00  0.00    -0.330 N 
ATOM     45  C   UNL     1      21.982 -23.863  -4.573  0.00  0.00    +0.120 C 
BRANCH   2   3
ATOM      3  C   UNL     1      24.493 -21.113  -4.164  0.00  0.00    +0.081 C 
ATOM      4  C   UNL     1      25.883 -21.621  -3.843  0.00  0.00    +0.020 C 
ENDBRANCH   2   3
ENDBRANCH   8   7
BRANCH  39  40
ATOM     40  C   UNL     1      16.071 -26.371  -5.431  0.00  0.00    +0.236 C 
ATOM     43  O   UNL     1      15.528 -26.705  -4.383  0.00  0.00    -0.274 OA
BRANCH  40  41
ATOM     41  C   UNL     1      15.385 -26.837  -6.673  0.00  0.00    +0.094 C 
ATOM     42  C   UNL     1      13.905 -27.118  -6.483  0.00  0.00    +0.013 C 
ENDBRANCH  40  41
ENDBRANCH  39  40
ENDBRANCH  12  11
BRANCH  18  19
ATOM     19  N   UNL     1      16.409 -23.520 -11.773  0.00  0.00    -0.244 N 
ATOM     20  C   UNL     1      15.788 -23.373 -12.990  0.00  0.00    +0.312 C 
ATOM     21  N   UNL     1      15.138 -24.438 -13.472  0.00  0.00    -0.266 N 
ATOM     22  H   UNL     1      15.101 -25.299 -12.838  0.00  0.00    +0.157 HD
ATOM     35  O   UNL     1      15.810 -22.327 -13.594  0.00  0.00    -0.252 OA
ATOM     36  C   UNL     1      17.100 -22.437 -11.064  0.00  0.00    +0.141 C 
BRANCH  21  23
ATOM     23  C   UNL     1      14.512 -24.550 -14.691  0.00  0.00    +0.079 A 
ATOM     24  C   UNL     1      13.387 -23.748 -15.157  0.00  0.00    +0.105 A 
ATOM     25 CL   UNL     1      12.540 -22.833 -13.927  0.00  0.00    -0.078 Cl
ATOM     26  C   UNL     1      12.898 -23.826 -16.534  0.00  0.00    +0.144 A 
ATOM     29  C   UNL     1      13.570 -24.597 -17.487  0.00  0.00    +0.094 A 
ATOM     30  C   UNL     1      14.669 -25.338 -17.097  0.00  0.00    +0.144 A 
ATOM     33  C   UNL     1      15.138 -25.285 -15.747  0.00  0.00    +0.105 A 
ATOM     34 CL   UNL     1      16.576 -26.220 -15.361  0.00  0.00    -0.078 Cl
BRANCH  26  27
ATOM     27  O   UNL     1      11.792 -23.120 -16.817  0.00  0.00    -0.493 OA
ATOM     28  C   UNL     1      11.124 -23.211 -18.107  0.00  0.00    +0.277 C 
ENDBRANCH  26  27
BRANCH  30  31
ATOM     31  O   UNL     1      15.387 -26.160 -17.913  0.00  0.00    -0.493 OA
ATOM     32  C   UNL     1      14.908 -26.439 -19.217  0.00  0.00    +0.277 C 
ENDBRANCH  30  31
ENDBRANCH  21  23
ENDBRANCH  18  19
TORSDOF 9
