REMARK  Name = 2w1g_ligand
REMARK  5 active torsions:
REMARK  status: ('A' for Active; 'I' for Inactive)
REMARK    1  A    between atoms: N3_3  and  C4_4
REMARK    2  A    between atoms: N7_7  and  C8_8
REMARK    3  A    between atoms: C13_12  and  C14_13
REMARK    4  A    between atoms: C19_17  and  C20_18
REMARK    5  A    between atoms: C20_18  and  N21_19
REMARK                            x       y       z     vdW  Elec       q    Type
REMARK                         _______ _______ _______ _____ _____    ______ ____
ROOT
ATOM      7  C   UNL     1       3.455  32.406   6.422  0.00  0.00    +0.142 A 
ATOM      8  N   UNL     1       3.359  32.056   5.101  0.00  0.00    -0.254 N 
ATOM      9  H   UNL     1       3.669  31.176   4.664  0.00  0.00    +0.229 HD
ATOM     10  C   UNL     1       2.750  33.147   4.471  0.00  0.00    +0.075 A 
ATOM     11  C   UNL     1       2.369  33.430   3.159  0.00  0.00    +0.009 A 
ATOM     12  C   UNL     1       1.762  34.653   2.860  0.00  0.00    -0.018 A 
ATOM     13  C   UNL     1       1.535  35.588   3.873  0.00  0.00    -0.014 A 
ATOM     22  C   UNL     1       1.920  35.281   5.151  0.00  0.00    -0.009 A 
ATOM     23  C   UNL     1       2.513  34.085   5.434  0.00  0.00    +0.022 A 
ATOM     24  N   UNL     1       2.947  33.618   6.601  0.00  0.00    -0.313 NA
ENDROOT
BRANCH   7   6
ATOM      5  C   UNL     1       4.842  30.541   7.369  0.00  0.00    +0.095 A 
ATOM      6  C   UNL     1       4.017  31.616   7.479  0.00  0.00    +0.118 A 
ATOM     25  N   UNL     1       3.758  31.909   8.763  0.00  0.00    -0.203 NA
ATOM     26  N   UNL     1       4.440  30.969   9.442  0.00  0.00    -0.230 N 
ATOM     27  H   UNL     1       4.457  30.892  10.469  0.00  0.00    +0.254 HD
ATOM     28  C   UNL     1       5.101  30.137   8.605  0.00  0.00    +0.141 A 
BRANCH   5   3
ATOM      1  O   UNL     1       6.171  28.203   7.254  0.00  0.00    -0.394 OA
ATOM      2  C   UNL     1       5.915  28.807   6.222  0.00  0.00    +0.279 C 
ATOM      3  N   UNL     1       5.290  29.999   6.224  0.00  0.00    -0.235 N 
ATOM      4  H   UNL     1       5.157  30.488   5.362  0.00  0.00    +0.215 HD
ATOM     29  N   UNL     1       6.234  28.334   5.000  0.00  0.00    -0.266 N 
ATOM     30  H   UNL     1       6.903  27.595   4.922  0.00  0.00    +0.185 HD
BRANCH  29  31
ATOM     31  C   UNL     1       5.638  28.864   3.812  0.00  0.00    +0.098 C 
ATOM     32  C   UNL     1       6.062  28.320   2.485  0.00  0.00    +0.030 C 
ATOM     33  C   UNL     1       6.473  29.703   2.895  0.00  0.00    +0.030 C 
ENDBRANCH  29  31
ENDBRANCH   5   3
ENDBRANCH   7   6
BRANCH  13  14
ATOM     14  C   UNL     1       0.901  36.917   3.591  0.00  0.00    +0.189 C 
BRANCH  14  15
ATOM     15  N   UNL     1       0.435  37.011   2.189  0.00  0.00    +0.249 N 
ATOM     16  H   UNL     1       1.151  36.631   1.590  0.00  0.00    +0.205 HD
ATOM     17  C   UNL     1       0.191  38.416   1.775  0.00  0.00    +0.161 C 
ATOM     18  C   UNL     1      -0.294  38.408   0.347  0.00  0.00    +0.210 C 
ATOM     19  O   UNL     1      -1.511  37.653   0.225  0.00  0.00    -0.369 OA
ATOM     20  C   UNL     1      -1.303  36.286   0.622  0.00  0.00    +0.210 C 
ATOM     21  C   UNL     1      -0.775  36.204   2.040  0.00  0.00    +0.161 C 
ENDBRANCH  14  15
ENDBRANCH  13  14
TORSDOF 5
