REMARK  Name = 3NUN
REMARK  1 active torsions:
REMARK  status: ('A' for Active; 'I' for Inactive)
REMARK    1  A    between atoms: C_3  and  C_5
REMARK                            x       y       z     vdW  Elec       q    Type
REMARK                         _______ _______ _______ _____ _____    ______ ____
ROOT
ATOM      6  C   UNL     1     -42.146  16.308  11.958  0.00  0.00    +0.003 A 
ATOM      7  C   UNL     1     -41.103  17.036  12.494  0.00  0.00    +0.011 A 
ATOM      8  C   UNL     1     -39.886  16.490  12.841  0.00  0.00    +0.014 A 
ATOM      9  C   UNL     1     -39.741  15.125  12.646  0.00  0.00    +0.041 A 
ATOM     10  C   UNL     1     -40.804  14.413  12.128  0.00  0.00    +0.068 A 
ATOM     11  N   UNL     1     -40.377  13.121  12.048  0.00  0.00    -0.275 N 
ATOM     12  H   UNL     1     -40.986  12.322  11.679  0.00  0.00    +0.189 HD
ATOM     13  N   UNL     1     -39.118  12.950  12.477  0.00  0.00    -0.158 NA
ATOM     14  C   UNL     1     -38.710  14.165  12.853  0.00  0.00    +0.146 A 
ATOM     15  N   UNL     1     -37.481  14.458  13.355  0.00  0.00    -0.341 N 
ATOM     16  H   UNL     1     -36.756  13.681  13.483  0.00  0.00    +0.144 HD
ATOM     17  H   UNL     1     -37.239  15.465  13.623  0.00  0.00    +0.144 HD
ATOM     18  C   UNL     1     -42.015  14.953  11.767  0.00  0.00    +0.038 A 
ENDROOT
BRANCH   6   5
ATOM      1  C   UNL     1     -44.901  18.719  11.615  0.00  0.00    +0.116 A 
ATOM      2  N   UNL     1     -45.810  18.023  10.931  0.00  0.00    -0.223 NA
ATOM      3  C   UNL     1     -45.458  16.779  10.599  0.00  0.00    +0.213 A 
ATOM      4  N   UNL     1     -44.283  16.206  10.909  0.00  0.00    -0.215 NA
ATOM      5  C   UNL     1     -43.394  16.942  11.590  0.00  0.00    +0.076 A 
ATOM     19  N   UNL     1     -46.409  16.044   9.874  0.00  0.00    -0.328 N 
ATOM     20  H   UNL     1     -46.194  15.040   9.574  0.00  0.00    +0.145 HD
ATOM     21  H   UNL     1     -47.349  16.488   9.621  0.00  0.00    +0.145 HD
ATOM     22  C   UNL     1     -43.668  18.230  11.968  0.00  0.00    +0.048 A 
ENDBRANCH   6   5
TORSDOF 1
