REMARK  Name = 7E7
REMARK  3 active torsions:
REMARK  status: ('A' for Active; 'I' for Inactive)
REMARK    1  A    between atoms: C6_3  and  O7_23
REMARK    2  A    between atoms: C8_4  and  O7_23
REMARK    3  A    between atoms: C13_7  and  C9_17
REMARK                            x       y       z     vdW  Elec       q    Type
REMARK                         _______ _______ _______ _____ _____    ______ ____
ROOT
ATOM      5  C   UNL     1      28.507  51.808  -0.907  0.00  0.00    +0.230 A 
ATOM      6  C   UNL     1      28.157  51.030   0.152  0.00  0.00    +0.093 A 
ATOM      7  C   UNL     1      29.242  51.107   1.042  0.00  0.00    +0.126 A 
ATOM      8  N   UNL     1      30.207  51.883   0.578  0.00  0.00    -0.165 NA
ATOM     19  N   UNL     1      29.764  52.317  -0.629  0.00  0.00    -0.218 N 
ATOM     20  C   UNL     1      30.619  53.188  -1.425  0.00  0.00    +0.157 C 
ENDROOT
BRANCH   6   9
ATOM      9  C   UNL     1      26.872  50.350   0.337  0.00  0.00    +0.108 A 
ATOM     10  C   UNL     1      26.638  49.491   1.465  0.00  0.00    +0.024 A 
ATOM     11  C   UNL     1      25.433  48.896   1.636  0.00  0.00    +0.042 A 
ATOM     12  C   UNL     1      24.412  49.158   0.694  0.00  0.00    +0.186 A 
ATOM     13  N   UNL     1      23.156  48.769   0.576  0.00  0.00    -0.127 NA
ATOM     14  N   UNL     1      22.636  49.399  -0.557  0.00  0.00    -0.132 NA
ATOM     15  C   UNL     1      23.577  50.140  -1.082  0.00  0.00    +0.164 A 
ATOM     16  C   UNL     1      23.450  51.021  -2.271  0.00  0.00    +0.076 C 
ATOM     17  N   UNL     1      24.726  50.016  -0.338  0.00  0.00    -0.195 N 
ATOM     18  N   UNL     1      25.936  50.621  -0.562  0.00  0.00    -0.162 NA
ENDBRANCH   6   9
BRANCH   5   4
ATOM      4  O   UNL     1      27.852  52.069  -2.065  0.00  0.00    -0.436 OA
BRANCH   4   3
ATOM      1  C   UNL     1      27.336  50.265  -5.217  0.00  0.00    +0.003 A 
ATOM      2  C   UNL     1      27.240  51.238  -4.239  0.00  0.00    +0.038 A 
ATOM      3  C   UNL     1      28.003  51.121  -3.090  0.00  0.00    +0.147 A 
ATOM     21  C   UNL     1      28.857  50.045  -2.919  0.00  0.00    +0.038 A 
ATOM     22  C   UNL     1      28.945  49.086  -3.911  0.00  0.00    +0.003 A 
ATOM     23  C   UNL     1      28.187  49.194  -5.055  0.00  0.00    +0.000 A 
ENDBRANCH   4   3
ENDBRANCH   5   4
TORSDOF 3
