REMARK  Name = 558
REMARK  2 active torsions:
REMARK  status: ('A' for Active; 'I' for Inactive)
REMARK    1  A    between atoms: CAO_7  and  CAM_8
REMARK    2  A    between atoms: NAD_23  and  CAP_24
REMARK                            x       y       z     vdW  Elec       q    Type
REMARK                         _______ _______ _______ _____ _____    ______ ____
ROOT
ATOM      3  C   UNL     1     -19.225 -61.806 138.521  0.00  0.00    +0.003 A 
ATOM      4  C   UNL     1     -19.582 -61.465 139.828  0.00  0.00    +0.002 A 
ATOM      5  C   UNL     1     -18.679 -60.735 140.648  0.00  0.00    +0.019 A 
ATOM      6  C   UNL     1     -17.395 -60.374 140.138  0.00  0.00    +0.080 A 
ATOM      7  N   UNL     1     -16.498 -59.714 140.932  0.00  0.00    -0.280 N 
ATOM      8  C   UNL     1     -16.550 -58.670 141.707  0.00  0.00    +0.147 A 
ATOM      9  N   UNL     1     -15.340 -58.414 142.286  0.00  0.00    -0.133 NA
ATOM     10  N   UNL     1     -14.568 -59.276 141.815  0.00  0.00    -0.133 NA
ATOM     11  C   UNL     1     -17.870 -57.979 141.903  0.00  0.00    +0.074 C 
ATOM     12  C   UNL     1     -15.199 -60.067 140.990  0.00  0.00    +0.148 A 
ATOM     13  C   UNL     1     -14.629 -61.187 140.262  0.00  0.00    +0.079 C 
ATOM     14  C   UNL     1     -13.233 -61.589 140.831  0.00  0.00    +0.010 C 
ATOM     15  C   UNL     1     -14.514 -60.871 138.804  0.00  0.00    +0.103 C 
ATOM     16  N   UNL     1     -15.810 -60.416 138.259  0.00  0.00    -0.285 N 
ATOM     24  C   UNL     1     -17.035 -60.756 138.831  0.00  0.00    +0.068 A 
ATOM     25  C   UNL     1     -17.949 -61.475 138.027  0.00  0.00    +0.016 A 
ENDROOT
BRANCH   3   2
ATOM      1  C   UNL     1     -19.540 -63.234 136.583  0.00  0.00    +0.004 A 
ATOM      2  C   UNL     1     -20.099 -62.536 137.682  0.00  0.00    +0.019 A 
ATOM     26  C   UNL     1     -21.490 -62.598 137.882  0.00  0.00    +0.100 A 
ATOM     27  N   UNL     1     -22.285 -63.371 136.981  0.00  0.00    -0.226 NA
ATOM     28  C   UNL     1     -21.713 -64.030 135.940  0.00  0.00    +0.170 A 
ATOM     29  N   UNL     1     -22.411 -64.771 135.090  0.00  0.00    -0.107 NA
ATOM     30  C   UNL     1     -20.337 -64.003 135.735  0.00  0.00    +0.038 A 
ENDBRANCH   3   2
BRANCH  16  17
ATOM     17  C   UNL     1     -15.769 -59.787 137.054  0.00  0.00    +0.052 A 
ATOM     18  C   UNL     1     -16.892 -59.103 136.517  0.00  0.00    +0.016 A 
ATOM     19  C   UNL     1     -16.809 -58.458 135.289  0.00  0.00    +0.013 A 
ATOM     20  C   UNL     1     -15.636 -58.474 134.533  0.00  0.00    +0.058 A 
ATOM     21  C   UNL     1     -14.551 -59.191 135.018  0.00  0.00    +0.013 A 
ATOM     22 CL   UNL     1     -15.570 -57.674 132.983  0.00  0.00    -0.082 Cl
ATOM     23  C   UNL     1     -14.583 -59.830 136.254  0.00  0.00    +0.016 A 
ENDBRANCH  16  17
TORSDOF 2
