REMARK  Name = 3ME3
REMARK  5 active torsions:
REMARK  status: ('A' for Active; 'I' for Inactive)
REMARK    1  A    between atoms: N_1  and  C_22
REMARK    2  A    between atoms: C_23  and  S_29
REMARK    3  A    between atoms: C_24  and  S_30
REMARK    4  A    between atoms: N_27  and  S_29
REMARK    5  A    between atoms: N_28  and  S_30
REMARK                            x       y       z     vdW  Elec       q    Type
REMARK                         _______ _______ _______ _____ _____    ______ ____
ROOT
ATOM      8  N   UNL     1      10.816   3.928  14.244  0.00  0.00    -0.175 NA
ATOM      9  C   UNL     1      10.803   2.465  14.518  0.00  0.00    +0.126 C 
ATOM     10  C   UNL     1       9.339   1.998  14.751  0.00  0.00    +0.126 C 
ATOM     11  N   UNL     1       8.609   1.827  13.463  0.00  0.00    -0.175 NA
ATOM     25  C   UNL     1       8.232   2.945  12.563  0.00  0.00    +0.111 C 
ATOM     26  C   UNL     1       8.868   4.297  12.840  0.00  0.00    +0.034 C 
ATOM     27  C   UNL     1      10.396   4.297  12.884  0.00  0.00    +0.111 C 
ENDROOT
BRANCH   8   7
ATOM      7  S   UNL     1      12.025   4.825  14.867  0.00  0.00    +0.061 S 
ATOM     28  O   UNL     1      11.507   6.223  14.919  0.00  0.00    -0.153 OA
ATOM     29  O   UNL     1      12.308   4.359  16.271  0.00  0.00    -0.153 OA
BRANCH   7   6
ATOM      4  C   UNL     1      15.029   5.549  12.238  0.00  0.00    +0.026 A 
ATOM      5  C   UNL     1      13.819   5.628  12.922  0.00  0.00    +0.051 A 
ATOM      6  C   UNL     1      13.537   4.751  13.972  0.00  0.00    +0.107 A 
ATOM     30  C   UNL     1      14.482   3.811  14.336  0.00  0.00    +0.029 A 
ATOM     31  C   UNL     1      15.674   3.720  13.650  0.00  0.00    +0.004 A 
ATOM     32  C   UNL     1      15.960   4.570  12.580  0.00  0.00    +0.023 A 
BRANCH   4   1
ATOM      1  N   UNL     1      15.283   6.380  11.231  0.00  0.00    -0.358 N 
ATOM      2  H   UNL     1      14.570   7.133  10.966  0.00  0.00    +0.142 HD
ATOM      3  H   UNL     1      16.200   6.296  10.686  0.00  0.00    +0.142 HD
ENDBRANCH   4   1
ENDBRANCH   7   6
ENDBRANCH   8   7
BRANCH  11  12
ATOM     12  S   UNL     1       7.657   0.500  13.261  0.00  0.00    +0.061 S 
ATOM     23  O   UNL     1       7.494   0.289  11.785  0.00  0.00    -0.153 OA
ATOM     24  O   UNL     1       8.287  -0.709  13.905  0.00  0.00    -0.153 OA
BRANCH  12  13
ATOM     13  C   UNL     1       6.093   0.698  14.015  0.00  0.00    +0.109 A 
ATOM     14  C   UNL     1       5.044   1.271  13.307  0.00  0.00    +0.078 A 
ATOM     15  C   UNL     1       3.808   1.463  13.937  0.00  0.00    +0.164 A 
ATOM     16  C   UNL     1       3.617   1.061  15.273  0.00  0.00    +0.162 A 
ATOM     17  O   UNL     1       2.414   1.219  15.905  0.00  0.00    -0.485 OA
ATOM     18  C   UNL     1       1.438   2.090  15.216  0.00  0.00    +0.270 C 
ATOM     19  C   UNL     1       1.482   1.798  13.724  0.00  0.00    +0.270 C 
ATOM     20  C   UNL     1       4.672   0.473  15.973  0.00  0.00    +0.051 A 
ATOM     21  O   UNL     1       2.808   2.047  13.224  0.00  0.00    -0.485 OA
ATOM     22  C   UNL     1       5.903   0.281  15.340  0.00  0.00    +0.032 A 
ENDBRANCH  12  13
ENDBRANCH  11  12
TORSDOF 5
