REMARK  Name = 3h0y_ligand
REMARK  5 active torsions:
REMARK  status: ('A' for Active; 'I' for Inactive)
REMARK    1  A    between atoms: N24_6  and  C30_7
REMARK    2  A    between atoms: C27_10  and  O31_11
REMARK    3  A    between atoms: N16_16  and  C11_17
REMARK    4  A    between atoms: C14_21  and  N9_23
REMARK    5  A    between atoms: C7_24  and  C4_26
REMARK                            x       y       z     vdW  Elec       q    Type
REMARK                         _______ _______ _______ _____ _____    ______ ____
ROOT
ATOM      1  F   UNL     1      53.758   9.725  18.984  0.00  0.00    -0.186 F 
ATOM      2  C   UNL     1      53.219  10.679  19.713  0.00  0.00    +0.189 A 
ATOM      3  C   UNL     1      53.056  10.515  21.029  0.00  0.00    +0.166 A 
ATOM      4  N   UNL     1      53.466   9.353  21.574  0.00  0.00    -0.263 N 
ATOM      5  H   UNL     1      53.981   8.675  20.995  0.00  0.00    +0.212 HD
ATOM     23  N   UNL     1      52.430  11.461  21.719  0.00  0.00    -0.238 NA
ATOM     24  C   UNL     1      52.179  12.756  21.159  0.00  0.00    +0.188 A 
ATOM     25  N   UNL     1      51.441  13.869  21.793  0.00  0.00    -0.253 N 
ATOM     26  H   UNL     1      50.967  14.540  21.172  0.00  0.00    +0.214 HD
ATOM     35  N   UNL     1      52.236  12.778  19.720  0.00  0.00    -0.273 NA
ATOM     36  C   UNL     1      52.840  11.796  19.078  0.00  0.00    +0.116 A 
ENDROOT
BRANCH   4   6
ATOM      6  C   UNL     1      53.210   9.064  22.873  0.00  0.00    +0.049 A 
ATOM      7  C   UNL     1      53.456  10.046  23.833  0.00  0.00    -0.000 A 
ATOM      8  C   UNL     1      53.028   9.899  25.139  0.00  0.00    -0.001 A 
ATOM      9  C   UNL     1      52.342   8.765  25.546  0.00  0.00    +0.056 A 
ATOM     21  C   UNL     1      52.072   7.774  24.582  0.00  0.00    -0.001 A 
ATOM     22  C   UNL     1      52.482   7.936  23.250  0.00  0.00    -0.000 A 
BRANCH   9  10
ATOM     10  N   UNL     1      52.055   8.709  26.880  0.00  0.00    -0.239 N 
ATOM     11  H   UNL     1      52.174   9.539  27.426  0.00  0.00    +0.222 HD
ATOM     12  C   UNL     1      51.625   7.606  27.492  0.00  0.00    +0.230 C 
ATOM     20  O   UNL     1      51.503   6.551  26.888  0.00  0.00    -0.375 OA
BRANCH  12  13
ATOM     13  C   UNL     1      51.213   7.604  28.944  0.00  0.00    +0.069 A 
ATOM     14  C   UNL     1      51.267   6.371  29.607  0.00  0.00    +0.026 A 
ATOM     15  C   UNL     1      50.891   6.263  30.940  0.00  0.00    +0.007 A 
ATOM     16  C   UNL     1      50.448   7.392  31.623  0.00  0.00    +0.008 A 
ATOM     17  C   UNL     1      50.379   8.621  30.973  0.00  0.00    +0.021 A 
ATOM     18  C   UNL     1      50.753   8.746  29.629  0.00  0.00    +0.061 A 
ATOM     19 CL   UNL     1      50.629  10.404  28.890  0.00  0.00    -0.065 Cl
ENDBRANCH  12  13
ENDBRANCH   9  10
ENDBRANCH   4   6
BRANCH  25  27
ATOM     27  C   UNL     1      51.341  14.073  23.127  0.00  0.00    +0.054 A 
ATOM     28  C   UNL     1      51.190  15.391  23.552  0.00  0.00    +0.005 A 
ATOM     29  C   UNL     1      51.143  15.697  24.912  0.00  0.00    +0.009 A 
ATOM     30  C   UNL     1      51.267  14.696  25.871  0.00  0.00    +0.076 A 
ATOM     33  C   UNL     1      51.439  13.384  25.460  0.00  0.00    +0.009 A 
ATOM     34  C   UNL     1      51.478  13.083  24.101  0.00  0.00    +0.005 A 
BRANCH  30  31
ATOM     31  O   UNL     1      51.232  14.988  27.168  0.00  0.00    -0.340 OA
ATOM     32  H   UNL     1      51.109  15.924  27.278  0.00  0.00    +0.244 HD
ENDBRANCH  30  31
ENDBRANCH  25  27
TORSDOF 5
