REMARK  Name = JQ1
REMARK  5 active torsions:
REMARK  status: ('A' for Active; 'I' for Inactive)
REMARK    1  A    between atoms: CAM_13  and  CAS_19
REMARK    2  A    between atoms: CAM_13  and  CBC_29
REMARK    3  A    between atoms: OAQ_17  and  CAS_19
REMARK    4  A    between atoms: OAQ_17  and  CBE_31
REMARK    5  A    between atoms: CAT_20  and  CAW_23
REMARK                            x       y       z     vdW  Elec       q    Type
REMARK                         _______ _______ _______ _____ _____    ______ ____
ROOT
ATOM      1  C   UNL     1      29.899  18.962   1.724  0.00  0.00    +0.074 C 
ATOM      2  C   UNL     1      30.534  18.050   0.671  0.00  0.00    +0.148 A 
ATOM      3  N   UNL     1      31.817  18.128   0.283  0.00  0.00    -0.133 NA
ATOM      4  N   UNL     1      32.044  17.250  -0.625  0.00  0.00    -0.131 NA
ATOM      5  C   UNL     1      30.894  16.581  -0.833  0.00  0.00    +0.170 A 
ATOM      6  C   UNL     1      30.646  15.463  -1.866  0.00  0.00    +0.173 C 
ATOM     15  N   UNL     1      29.662  16.042  -2.828  0.00  0.00    -0.264 NA
ATOM     16  C   UNL     1      28.375  16.220  -2.489  0.00  0.00    +0.078 C 
ATOM     17  C   UNL     1      27.931  16.125  -1.137  0.00  0.00    +0.036 A 
ATOM     18  C   UNL     1      28.660  16.602  -0.030  0.00  0.00    +0.097 A 
ATOM     19  S   UNL     1      27.810  16.331   1.456  0.00  0.00    -0.074 S 
ATOM     20  C   UNL     1      26.460  15.625   0.646  0.00  0.00    +0.005 A 
ATOM     21  C   UNL     1      25.204  15.116   1.393  0.00  0.00    +0.038 C 
ATOM     22  C   UNL     1      26.696  15.557  -0.722  0.00  0.00    -0.016 A 
ATOM     23  C   UNL     1      25.682  14.930  -1.694  0.00  0.00    +0.031 C 
ATOM     30  N   UNL     1      29.932  17.088  -0.061  0.00  0.00    -0.274 N 
ENDROOT
BRANCH  16  24
ATOM     24  C   UNL     1      27.522  16.765  -3.512  0.00  0.00    +0.017 A 
ATOM     25  C   UNL     1      26.351  17.447  -3.210  0.00  0.00    +0.001 A 
ATOM     26  C   UNL     1      25.532  17.964  -4.219  0.00  0.00    +0.000 A 
ATOM     27  C   UNL     1      25.880  17.822  -5.542  0.00  0.00    +0.000 A 
ATOM     28  C   UNL     1      27.032  17.110  -5.868  0.00  0.00    +0.000 A 
ATOM     29  C   UNL     1      27.857  16.609  -4.867  0.00  0.00    +0.001 A 
ENDBRANCH  16  24
BRANCH   6   7
ATOM      7  C   UNL     1      31.898  14.964  -2.576  0.00  0.00    +0.142 C 
BRANCH   7   8
ATOM      8  C   UNL     1      31.475  13.972  -3.665  0.00  0.00    +0.319 C 
ATOM     14  O   UNL     1      32.109  13.864  -4.714  0.00  0.00    -0.250 OA
BRANCH   8   9
ATOM      9  O   UNL     1      30.400  13.247  -3.384  0.00  0.00    -0.456 OA
BRANCH   9  10
ATOM     10  C   UNL     1      29.731  12.302  -4.299  0.00  0.00    +0.136 C 
ATOM     11  C   UNL     1      28.543  11.742  -3.510  0.00  0.00    +0.044 C 
ATOM     12  C   UNL     1      30.649  11.124  -4.687  0.00  0.00    +0.044 C 
ATOM     13  C   UNL     1      29.233  13.118  -5.465  0.00  0.00    +0.044 C 
ENDBRANCH   9  10
ENDBRANCH   8   9
ENDBRANCH   7   8
ENDBRANCH   6   7
TORSDOF 5
