REMARK  Name = 3vo3_ligand
REMARK  8 active torsions:
REMARK  status: ('A' for Active; 'I' for Inactive)
REMARK    1  A    between atoms: C5_7  and  N7_28
REMARK    2  A    between atoms: C1_8  and  O17_32
REMARK    3  A    between atoms: C10_9  and  C8_16
REMARK    4  A    between atoms: C12_10  and  C16_21
REMARK    5  A    between atoms: C24_11  and  N26_29
REMARK    6  A    between atoms: C18_15  and  O17_32
REMARK    7  A    between atoms: C27_17  and  C29_20
REMARK    8  A    between atoms: C15_22  and  N14_27
REMARK                            x       y       z     vdW  Elec       q    Type
REMARK                         _______ _______ _______ _____ _____    ______ ____
ROOT
ATOM      1  C   UNL     1      28.702 -29.284 -11.436  0.00  0.00    -0.027 A 
ATOM      2  C   UNL     1      27.351 -29.023 -11.450  0.00  0.00    -0.000 A 
ATOM      3  C   UNL     1      26.680 -29.120 -12.648  0.00  0.00    +0.106 A 
ATOM     21  C   UNL     1      27.331 -29.475 -13.811  0.00  0.00    +0.034 A 
ATOM     22  C   UNL     1      28.685 -29.732 -13.765  0.00  0.00    +0.058 A 
ATOM     34  C   UNL     1      29.374 -29.649 -12.576  0.00  0.00    -0.009 A 
ENDROOT
BRANCH  22  23
ATOM     23  N   UNL     1      29.395 -30.105 -14.908  0.00  0.00    -0.234 N 
ATOM     24  H   UNL     1      30.107 -30.801 -14.815  0.00  0.00    +0.225 HD
ATOM     25  C   UNL     1      29.173 -29.573 -16.146  0.00  0.00    +0.259 C 
ATOM     26  O   UNL     1      28.308 -28.749 -16.392  0.00  0.00    -0.371 OA
BRANCH  25  27
ATOM     27  C   UNL     1      30.031 -30.113 -17.156  0.00  0.00    +0.160 A 
ATOM     28  N   UNL     1      30.360 -29.471 -18.321  0.00  0.00    -0.202 N 
ATOM     29  N   UNL     1      31.169 -30.166 -19.131  0.00  0.00    -0.218 NA
ATOM     30  C   UNL     1      31.382 -31.299 -18.460  0.00  0.00    +0.014 A 
ATOM     31  C   UNL     1      32.245 -32.345 -19.037  0.00  0.00    +0.087 C 
ATOM     32  C   UNL     1      29.918 -28.160 -18.754  0.00  0.00    +0.238 C 
ATOM     33  C   UNL     1      30.696 -31.320 -17.222  0.00  0.00    +0.018 A 
ENDBRANCH  25  27
ENDBRANCH  22  23
BRANCH   3   4
ATOM      4  O   UNL     1      25.320 -28.893 -12.713  0.00  0.00    -0.240 OA
BRANCH   4   5
ATOM      5  C   UNL     1      24.801 -27.649 -12.432  0.00  0.00    +0.216 A 
ATOM      6  N   UNL     1      23.602 -27.691 -12.040  0.00  0.00    -0.134 NA
ATOM      7  N   UNL     1      23.030 -26.490 -11.777  0.00  0.00    -0.163 N 
ATOM      8  C   UNL     1      23.641 -25.291 -11.895  0.00  0.00    +0.148 A 
ATOM      9  N   UNL     1      22.886 -24.278 -11.606  0.00  0.00    -0.315 NA
ATOM     10  C   UNL     1      21.684 -24.883 -11.292  0.00  0.00    +0.101 A 
ATOM     18  C   UNL     1      24.926 -25.209 -12.286  0.00  0.00    +0.068 A 
ATOM     19  C   UNL     1      21.748 -26.218 -11.397  0.00  0.00    +0.146 A 
ATOM     20  C   UNL     1      25.495 -26.495 -12.568  0.00  0.00    +0.073 A 
BRANCH  10  11
ATOM     11  N   UNL     1      20.564 -24.142 -10.943  0.00  0.00    -0.240 N 
ATOM     12  H   UNL     1      20.643 -23.146 -10.979  0.00  0.00    +0.220 HD
ATOM     13  C   UNL     1      19.352 -24.668 -10.551  0.00  0.00    +0.202 C 
ATOM     14  O   UNL     1      19.077 -25.856 -10.448  0.00  0.00    -0.387 OA
BRANCH  13  15
ATOM     15  C   UNL     1      18.359 -23.631 -10.228  0.00  0.00    +0.108 C 
ATOM     16  C   UNL     1      16.898 -23.903 -10.447  0.00  0.00    +0.028 C 
ATOM     17  C   UNL     1      17.436 -23.791  -9.054  0.00  0.00    +0.028 C 
ENDBRANCH  13  15
ENDBRANCH  10  11
ENDBRANCH   4   5
ENDBRANCH   3   4
TORSDOF 6
