REMARK  Name = 3kvx_ligand
REMARK  4 active torsions:
REMARK  status: ('A' for Active; 'I' for Inactive)
REMARK    1  A    between atoms: N19_19  and  C23_23
REMARK    2  A    between atoms: C24_24  and  C33_34
REMARK    3  A    between atoms: C25_25  and  N28_28
REMARK    4  A    between atoms: C26_26  and  N30_30
REMARK                            x       y       z     vdW  Elec       q    Type
REMARK                         _______ _______ _______ _____ _____    ______ ____
ROOT
ATOM      3  N   UNL     1     -28.479  36.095  10.107  0.00  0.00    -0.245 N 
ATOM      4  H   UNL     1     -28.427  36.986   9.593  0.00  0.00    +0.216 HD
ATOM      5  C   UNL     1     -29.671  35.507  10.223  0.00  0.00    +0.208 A 
ATOM      6  N   UNL     1     -29.866  34.751  11.324  0.00  0.00    -0.248 NA
ATOM      7  C   UNL     1     -31.095  34.271  11.585  0.00  0.00    +0.051 A 
ATOM      8  C   UNL     1     -32.121  34.535  10.756  0.00  0.00    +0.050 A 
ATOM      9  C   UNL     1     -31.869  35.337   9.632  0.00  0.00    +0.103 A 
ATOM     23  N   UNL     1     -30.651  35.785   9.299  0.00  0.00    -0.253 NA
ENDROOT
BRANCH   7  10
ATOM     10  C   UNL     1     -31.101  33.351  12.721  0.00  0.00    -0.010 A 
ATOM     11  C   UNL     1     -29.779  33.118  13.080  0.00  0.00    +0.017 A 
ATOM     12  C   UNL     1     -29.483  32.233  14.099  0.00  0.00    +0.043 A 
ATOM     19  C   UNL     1     -30.498  31.739  14.919  0.00  0.00    +0.045 A 
ATOM     20  C   UNL     1     -31.817  32.075  14.636  0.00  0.00    +0.125 A 
ATOM     21  F   UNL     1     -32.691  31.542  15.470  0.00  0.00    -0.186 F 
ATOM     22  C   UNL     1     -32.174  32.860  13.516  0.00  0.00    +0.025 A 
BRANCH  12  13
ATOM     13  N   UNL     1     -28.147  32.051  14.461  0.00  0.00    -0.305 N 
ATOM     14  C   UNL     1     -27.424  31.300  13.429  0.00  0.00    +0.157 C 
ATOM     15  C   UNL     1     -26.128  31.010  14.141  0.00  0.00    +0.183 C 
ATOM     16  O   UNL     1     -25.495  32.246  14.613  0.00  0.00    -0.376 OA
ATOM     17  C   UNL     1     -26.109  33.495  14.314  0.00  0.00    +0.183 C 
ATOM     18  C   UNL     1     -27.559  33.396  14.760  0.00  0.00    +0.157 C 
ENDBRANCH  12  13
ENDBRANCH   7  10
BRANCH   3   2
ATOM      1  C   UNL     1     -27.388  34.842  11.760  0.00  0.00    +0.011 A 
ATOM      2  C   UNL     1     -27.360  35.602  10.613  0.00  0.00    +0.059 A 
ATOM     24  C   UNL     1     -26.158  35.927   9.944  0.00  0.00    +0.011 A 
ATOM     25  C   UNL     1     -24.940  35.450  10.398  0.00  0.00    +0.021 A 
ATOM     26  C   UNL     1     -24.875  34.675  11.576  0.00  0.00    +0.100 A 
ATOM     38  C   UNL     1     -26.111  34.445  12.241  0.00  0.00    +0.021 A 
BRANCH  26  27
ATOM     27  N   UNL     1     -23.739  34.154  11.999  0.00  0.00    -0.157 N 
ATOM     28  N   UNL     1     -22.506  34.390  11.372  0.00  0.00    -0.185 NA
ATOM     29  C   UNL     1     -21.674  33.730  12.221  0.00  0.00    +0.158 A 
ATOM     30  N   UNL     1     -20.308  33.527  12.026  0.00  0.00    -0.290 N 
ATOM     31  C   UNL     1     -19.586  34.163  10.916  0.00  0.00    +0.158 C 
ATOM     32  C   UNL     1     -18.337  33.324  10.548  0.00  0.00    +0.183 C 
ATOM     33  O   UNL     1     -18.430  31.942  10.957  0.00  0.00    -0.376 OA
ATOM     34  C   UNL     1     -18.547  31.758  12.381  0.00  0.00    +0.183 C 
ATOM     35  C   UNL     1     -19.559  32.733  13.031  0.00  0.00    +0.158 C 
ATOM     36  N   UNL     1     -22.355  33.095  13.216  0.00  0.00    -0.265 NA
ATOM     37  C   UNL     1     -23.669  33.428  13.093  0.00  0.00    +0.269 A 
ENDBRANCH  26  27
ENDBRANCH   3   2
TORSDOF 4
