REMARK  Name = 3igg_ligand
REMARK  7 active torsions:
REMARK  status: ('A' for Active; 'I' for Inactive)
REMARK    1  A    between atoms: C1_1  and  N1_2
REMARK    2  A    between atoms: O1_3  and  C7_13
REMARK    3  A    between atoms: N3_8  and  C6_12
REMARK    4  A    between atoms: O3_9  and  C15_21
REMARK    5  A    between atoms: O3_9  and  C16_22
REMARK    6  A    between atoms: C8_14  and  C9_15
REMARK    7  A    between atoms: C9_15  and  C10_16
REMARK                            x       y       z     vdW  Elec       q    Type
REMARK                         _______ _______ _______ _____ _____    ______ ____
ROOT
ATOM     11  N   UNL     1       2.996  30.058   7.175  0.00  0.00    -0.244 N 
ATOM     12  H   UNL     1       3.651  30.385   6.494  0.00  0.00    +0.216 HD
ATOM     13  C   UNL     1       3.229  28.895   7.815  0.00  0.00    +0.206 C 
ATOM     23  O   UNL     1       2.433  28.299   8.535  0.00  0.00    -0.386 OA
ENDROOT
BRANCH  11  10
ATOM      7  N   UNL     1      -0.160  31.610   8.141  0.00  0.00    -0.266 N 
ATOM      8  C   UNL     1       0.501  32.574   7.475  0.00  0.00    +0.209 A 
ATOM      9  N   UNL     1       1.681  32.137   7.049  0.00  0.00    -0.303 NA
ATOM     10  C   UNL     1       1.795  30.852   7.463  0.00  0.00    +0.102 A 
ATOM     24  C   UNL     1       0.621  30.510   8.167  0.00  0.00    +0.106 A 
BRANCH   7   1
ATOM      1  C   UNL     1      -1.453  31.892   8.689  0.00  0.00    +0.134 C 
ATOM      2  C   UNL     1      -1.459  31.827  10.265  0.00  0.00    +0.068 C 
ATOM      3  C   UNL     1      -2.916  31.277  10.123  0.00  0.00    +0.120 C 
ATOM      6  C   UNL     1      -2.483  30.735   8.741  0.00  0.00    +0.068 C 
BRANCH   3   4
ATOM      4  O   UNL     1      -3.160  30.313  11.149  0.00  0.00    -0.392 OA
ATOM      5  H   UNL     1      -3.418  30.760  11.947  0.00  0.00    +0.210 HD
ENDBRANCH   3   4
ENDBRANCH   7   1
ENDBRANCH  11  10
BRANCH  13  14
ATOM     14  C   UNL     1       4.633  28.398   7.570  0.00  0.00    +0.198 C 
BRANCH  14  15
ATOM     15  C   UNL     1       4.595  27.450   6.414  0.00  0.00    -0.035 A 
ATOM     16  C   UNL     1       4.777  27.914   5.107  0.00  0.00    -0.013 A 
ATOM     17  C   UNL     1       4.762  26.993   4.072  0.00  0.00    +0.013 A 
ATOM     18  C   UNL     1       4.526  25.638   4.289  0.00  0.00    +0.084 A 
ATOM     19  C   UNL     1       4.369  25.189   5.589  0.00  0.00    +0.013 A 
ATOM     22  C   UNL     1       4.385  26.102   6.627  0.00  0.00    -0.013 A 
BRANCH  18  20
ATOM     20  O   UNL     1       4.481  24.673   3.272  0.00  0.00    -0.326 OA
ATOM     21  C   UNL     1       5.658  24.740   2.461  0.00  0.00    +0.230 C 
ENDBRANCH  18  20
ENDBRANCH  14  15
ENDBRANCH  13  14
TORSDOF 6
