REMARK  Name = 9YE
REMARK  4 active torsions:
REMARK  status: ('A' for Active; 'I' for Inactive)
REMARK    1  A    between atoms: C16_8  and  C20_13
REMARK    2  A    between atoms: C16_8  and  O3_27
REMARK    3  A    between atoms: C17_9  and  N1_24
REMARK    4  A    between atoms: C4_18  and  O3_27
REMARK                            x       y       z     vdW  Elec       q    Type
REMARK                         _______ _______ _______ _____ _____    ______ ____
ROOT
ATOM      1  C   UNL     1     -17.217   6.024   5.787  0.00  0.00    +0.003 A 
ATOM      2  C   UNL     1     -17.817   5.673   6.971  0.00  0.00    +0.043 A 
ATOM      3  C   UNL     1     -17.219   5.025   8.169  0.00  0.00    +0.197 C 
ATOM      4  C   UNL     1     -18.350   4.847   9.104  0.00  0.00    +0.059 A 
ATOM      5  C   UNL     1     -18.734   4.316  10.376  0.00  0.00    +0.051 A 
ATOM      6  C   UNL     1     -17.961   3.647  11.429  0.00  0.00    +0.174 C 
ATOM      7  C   UNL     1     -18.728   3.294  12.687  0.00  0.00    +0.070 C 
ATOM      8  C   UNL     1     -20.190   2.994  12.459  0.00  0.00    +0.014 C 
ATOM      9  C   UNL     1     -20.913   4.112  11.708  0.00  0.00    +0.044 C 
ATOM     10  O   UNL     1     -16.769   3.385  11.323  0.00  0.00    -0.291 OA
ATOM     11  C   UNL     1     -20.110   4.526  10.509  0.00  0.00    +0.040 A 
ATOM     12  N   UNL     1     -20.591   5.193   9.364  0.00  0.00    -0.332 N 
ATOM     16  C   UNL     1     -19.536   5.401   8.499  0.00  0.00    +0.066 A 
ATOM     17  O   UNL     1     -16.046   4.689   8.275  0.00  0.00    -0.286 OA
ATOM     18  C   UNL     1     -19.212   5.920   7.191  0.00  0.00    +0.053 A 
ATOM     19  C   UNL     1     -19.959   6.527   6.165  0.00  0.00    +0.140 A 
ATOM     26  C   UNL     1     -19.329   6.871   4.979  0.00  0.00    +0.037 A 
ATOM     27  C   UNL     1     -17.988   6.613   4.790  0.00  0.00    +0.003 A 
ENDROOT
BRANCH  12  13
ATOM     13  C   UNL     1     -21.998   5.576   9.085  0.00  0.00    +0.085 C 
ATOM     14  C   UNL     1     -22.548   6.514  10.140  0.00  0.00    +0.025 C 
ATOM     15  C   UNL     1     -22.855   4.334   8.866  0.00  0.00    +0.025 C 
ENDBRANCH  12  13
BRANCH  19  20
ATOM     20  O   UNL     1     -21.301   6.771   6.361  0.00  0.00    -0.471 OA
BRANCH  20  21
ATOM     21  C   UNL     1     -21.980   7.538   5.356  0.00  0.00    +0.231 C 
BRANCH  21  22
ATOM     22  C   UNL     1     -23.411   7.679   5.749  0.00  0.00    +0.012 C 
ATOM     23  C   UNL     1     -24.251   8.527   5.197  0.00  0.00    -0.044 C 
ATOM     24  C   UNL     1     -25.702   8.598   5.560  0.00  0.00    +0.026 C 
ATOM     25  C   UNL     1     -23.806   9.501   4.154  0.00  0.00    +0.026 C 
ENDBRANCH  21  22
ENDBRANCH  20  21
ENDBRANCH  19  20
TORSDOF 4
