REMARK  Name = 5HI2
REMARK  7 active torsions:
REMARK  status: ('A' for Active; 'I' for Inactive)
REMARK    1  A    between atoms: C_2  and  N_26
REMARK    2  A    between atoms: C_6  and  N_27
REMARK    3  A    between atoms: C_9  and  O_12
REMARK    4  A    between atoms: O_12  and  C_29
REMARK    5  A    between atoms: C_15  and  C_31
REMARK    6  A    between atoms: N_17  and  C_18
REMARK    7  A    between atoms: C_20  and  C_21
REMARK                            x       y       z     vdW  Elec       q    Type
REMARK                         _______ _______ _______ _____ _____    ______ ____
ROOT
ATOM     18  C   UNL     1      29.987  13.008 -12.519  0.00  0.00    +0.035 A 
ATOM     19  C   UNL     1      31.294  12.783 -12.957  0.00  0.00    +0.027 A 
ATOM     20  C   UNL     1      32.134  13.853 -13.166  0.00  0.00    +0.048 A 
ATOM     21  C   UNL     1      31.696  15.151 -12.942  0.00  0.00    +0.129 A 
ATOM     34  C   UNL     1      30.406  15.379 -12.488  0.00  0.00    +0.048 A 
ATOM     35  C   UNL     1      29.560  14.308 -12.263  0.00  0.00    +0.027 A 
ENDROOT
BRANCH  18  16
ATOM     12  N   UNL     1      27.257  10.670 -11.958  0.00  0.00    -0.269 N 
ATOM     13  H   UNL     1      27.924   9.854 -11.773  0.00  0.00    +0.156 HD
ATOM     14  C   UNL     1      27.803  11.866 -12.250  0.00  0.00    +0.308 C 
ATOM     15  O   UNL     1      27.105  12.843 -12.470  0.00  0.00    -0.252 OA
ATOM     16  N   UNL     1      29.159  11.899 -12.277  0.00  0.00    -0.269 N 
ATOM     17  H   UNL     1      29.657  10.970 -12.092  0.00  0.00    +0.156 HD
BRANCH  12  11
ATOM      1  C   UNL     1      25.008  11.015 -12.760  0.00  0.00    +0.037 A 
ATOM      2  C   UNL     1      23.668  10.751 -12.697  0.00  0.00    +0.075 A 
ATOM      7  C   UNL     1      23.233   9.858 -11.751  0.00  0.00    +0.053 A 
ATOM      8 CL   UNL     1      21.547   9.535 -11.664  0.00  0.00    -0.083 Cl
ATOM      9  C   UNL     1      24.099   9.244 -10.859  0.00  0.00    +0.022 A 
ATOM     10  C   UNL     1      25.442   9.526 -10.924  0.00  0.00    +0.025 A 
ATOM     11  C   UNL     1      25.897  10.417 -11.879  0.00  0.00    +0.035 A 
BRANCH   2   3
ATOM      3  C   UNL     1      22.705  11.397 -13.666  0.00  0.00    +0.419 C 
ATOM      4  F   UNL     1      21.708  12.127 -12.985  0.00  0.00    -0.166 F 
ATOM      5  F   UNL     1      22.190  10.389 -14.490  0.00  0.00    -0.166 F 
ATOM      6  F   UNL     1      23.368  12.261 -14.531  0.00  0.00    -0.166 F 
ENDBRANCH   2   3
ENDBRANCH  12  11
ENDBRANCH  18  16
BRANCH  21  22
ATOM     22  O   UNL     1      32.556  16.186 -13.136  0.00  0.00    -0.456 OA
BRANCH  22  23
ATOM     23  C   UNL     1      32.317  17.247 -13.960  0.00  0.00    +0.132 A 
ATOM     24  C   UNL     1      32.759  18.505 -13.566  0.00  0.00    +0.079 A 
ATOM     25  C   UNL     1      32.550  19.598 -14.397  0.00  0.00    +0.129 A 
ATOM     31  N   UNL     1      31.925  19.470 -15.563  0.00  0.00    -0.250 NA
ATOM     32  C   UNL     1      31.510  18.286 -15.976  0.00  0.00    +0.115 A 
ATOM     33  C   UNL     1      31.679  17.141 -15.204  0.00  0.00    +0.066 A 
BRANCH  25  26
ATOM     26  C   UNL     1      32.995  20.910 -13.892  0.00  0.00    +0.262 C 
ATOM     27  O   UNL     1      33.468  20.973 -12.782  0.00  0.00    -0.269 OA
ATOM     28  N   UNL     1      32.837  22.039 -14.574  0.00  0.00    -0.313 N 
ATOM     29  H   UNL     1      32.403  22.043 -15.552  0.00  0.00    +0.149 HD
ATOM     30  C   UNL     1      33.281  23.276 -13.933  0.00  0.00    +0.128 C 
ENDBRANCH  25  26
ENDBRANCH  22  23
ENDBRANCH  21  22
TORSDOF 6
