REMARK  Name = 5UGB
REMARK  9 active torsions:
REMARK  status: ('A' for Active; 'I' for Inactive)
REMARK    1  A    between atoms: C_3  and  N_16
REMARK    2  A    between atoms: C_7  and  N_24
REMARK    3  A    between atoms: C_10  and  N_25
REMARK    4  A    between atoms: C_12  and  C_13
REMARK    5  A    between atoms: C_18  and  N_19
REMARK    6  A    between atoms: N_19  and  C_20
REMARK    7  A    between atoms: N_30  and  C_31
REMARK    8  A    between atoms: C_31  and  C_32
REMARK    9  A    between atoms: C_31  and  C_33
REMARK                            x       y       z     vdW  Elec       q    Type
REMARK                         _______ _______ _______ _____ _____    ______ ____
ROOT
ATOM      8  N   UNL     1       1.835 -50.856 -22.106  0.00  0.00    -0.309 N 
ATOM      9  H   UNL     1       2.303 -50.649 -23.045  0.00  0.00    +0.149 HD
ATOM     10  C   UNL     1       0.892 -51.894 -22.020  0.00  0.00    +0.219 A 
ATOM     11  N   UNL     1       0.591 -52.623 -23.144  0.00  0.00    -0.195 NA
ATOM     12  C   UNL     1      -0.335 -53.611 -22.929  0.00  0.00    +0.168 A 
ATOM     13  N   UNL     1      -0.882 -54.529 -23.819  0.00  0.00    -0.312 N 
ATOM     17  C   UNL     1      -1.757 -55.293 -23.090  0.00  0.00    +0.202 A 
ATOM     18  N   UNL     1      -1.827 -54.947 -21.822  0.00  0.00    -0.231 NA
ATOM     19  C   UNL     1      -0.960 -53.911 -21.710  0.00  0.00    +0.148 A 
ATOM     20  C   UNL     1      -0.607 -53.120 -20.604  0.00  0.00    +0.156 A 
ATOM     36  N   UNL     1       0.313 -52.138 -20.814  0.00  0.00    -0.197 NA
ENDROOT
BRANCH   8   7
ATOM      1  C   UNL     1       4.404 -50.802 -20.342  0.00  0.00    +0.109 C 
ATOM      2  N   UNL     1       4.496 -49.483 -20.961  0.00  0.00    -0.300 N 
ATOM      3  C   UNL     1       5.647 -48.728 -21.193  0.00  0.00    +0.212 C 
ATOM      4  O   UNL     1       5.622 -47.603 -21.715  0.00  0.00    -0.276 OA
ATOM      5  C   UNL     1       6.973 -49.343 -20.772  0.00  0.00    +0.109 C 
ATOM      6  C   UNL     1       3.181 -48.974 -21.336  0.00  0.00    +0.130 C 
ATOM      7  C   UNL     1       2.192 -50.045 -20.923  0.00  0.00    +0.092 C 
ATOM     37  C   UNL     1       2.974 -50.836 -19.853  0.00  0.00    +0.043 C 
ENDBRANCH   8   7
BRANCH  13  14
ATOM     14  C   UNL     1      -0.668 -54.740 -25.263  0.00  0.00    +0.084 C 
ATOM     15  C   UNL     1      -0.272 -53.472 -26.044  0.00  0.00    +0.030 C 
ATOM     16  C   UNL     1       0.342 -55.827 -25.563  0.00  0.00    +0.030 C 
ENDBRANCH  13  14
BRANCH  20  21
ATOM     21  N   UNL     1      -1.191 -53.346 -19.353  0.00  0.00    -0.297 N 
ATOM     22  H   UNL     1      -1.999 -54.048 -19.353  0.00  0.00    +0.154 HD
BRANCH  21  23
ATOM     23  C   UNL     1      -0.882 -52.794 -18.091  0.00  0.00    +0.033 A 
ATOM     24  C   UNL     1       0.048 -51.727 -17.880  0.00  0.00    +0.025 A 
ATOM     25  C   UNL     1       0.324 -51.227 -16.603  0.00  0.00    +0.025 A 
ATOM     26  C   UNL     1      -0.328 -51.777 -15.454  0.00  0.00    +0.030 A 
ATOM     34  C   UNL     1      -1.262 -52.839 -15.662  0.00  0.00    +0.025 A 
ATOM     35  C   UNL     1      -1.535 -53.339 -16.954  0.00  0.00    +0.025 A 
BRANCH  26  27
ATOM     27  N   UNL     1      -0.086 -51.329 -14.134  0.00  0.00    -0.328 N 
ATOM     28  C   UNL     1       1.352 -51.482 -13.746  0.00  0.00    +0.120 C 
ATOM     29  C   UNL     1       1.488 -51.276 -12.246  0.00  0.00    +0.103 C 
ATOM     30  N   UNL     1       0.948 -49.895 -11.899  0.00  0.00    -0.302 NA
ATOM     31  C   UNL     1       1.078 -49.671 -10.422  0.00  0.00    +0.105 C 
ATOM     32  C   UNL     1      -0.504 -49.712 -12.363  0.00  0.00    +0.103 C 
ATOM     33  C   UNL     1      -0.586 -49.957 -13.878  0.00  0.00    +0.120 C 
ENDBRANCH  26  27
ENDBRANCH  21  23
ENDBRANCH  20  21
TORSDOF 5
