REMARK  Name = 5VED
REMARK  5 active torsions:
REMARK  status: ('A' for Active; 'I' for Inactive)
REMARK    1  A    between atoms: C_4  and  N_34
REMARK    2  A    between atoms: C_5  and  O_32
REMARK    3  A    between atoms: C_6  and  C_7
REMARK    4  A    between atoms: O_32  and  C_33
REMARK    5  A    between atoms: N_34  and  C_35
REMARK                            x       y       z     vdW  Elec       q    Type
REMARK                         _______ _______ _______ _____ _____    ______ ____
ROOT
ATOM      1  O   UNL     1     -29.553  16.532 -12.836  0.00  0.00    -0.328 OA
ATOM      2  C   UNL     1     -28.228  16.393 -12.413  0.00  0.00    +0.174 C 
ATOM      3  N   UNL     1     -27.443  15.448 -13.238  0.00  0.00    -0.307 N 
ATOM      4  C   UNL     1     -26.082  15.449 -13.546  0.00  0.00    +0.053 A 
ATOM      5  C   UNL     1     -25.025  16.303 -13.204  0.00  0.00    +0.026 A 
ATOM      6  C   UNL     1     -23.760  16.025 -13.689  0.00  0.00    +0.002 A 
ATOM      7  C   UNL     1     -23.505  14.935 -14.493  0.00  0.00    +0.001 A 
ATOM      8  C   UNL     1     -24.517  14.065 -14.851  0.00  0.00    +0.010 A 
ATOM      9  C   UNL     1     -25.798  14.334 -14.370  0.00  0.00    +0.008 A 
ATOM     10  C   UNL     1     -27.050  13.617 -14.568  0.00  0.00    +0.015 A 
ATOM     11  C   UNL     1     -27.395  12.469 -15.271  0.00  0.00    -0.008 A 
ATOM     12  C   UNL     1     -26.592  11.508 -16.111  0.00  0.00    +0.141 C 
ATOM     13  N   UNL     1     -27.536  10.491 -16.585  0.00  0.00    -0.307 N 
ATOM     14  H   UNL     1     -27.294   9.656 -17.209  0.00  0.00    +0.149 HD
ATOM     15  C   UNL     1     -28.755  10.783 -16.104  0.00  0.00    +0.245 C 
ATOM     16  O   UNL     1     -29.754  10.126 -16.320  0.00  0.00    -0.270 OA
ATOM     17  C   UNL     1     -28.705  12.006 -15.285  0.00  0.00    +0.052 A 
ATOM     18  C   UNL     1     -29.696  12.716 -14.569  0.00  0.00    +0.022 A 
ATOM     19  C   UNL     1     -31.129  12.533 -14.360  0.00  0.00    +0.009 A 
ATOM     20  C   UNL     1     -32.022  11.562 -14.815  0.00  0.00    +0.010 A 
ATOM     21  C   UNL     1     -33.342  11.694 -14.418  0.00  0.00    +0.001 A 
ATOM     22  C   UNL     1     -33.766  12.735 -13.612  0.00  0.00    +0.002 A 
ATOM     23  C   UNL     1     -32.895  13.708 -13.151  0.00  0.00    +0.026 A 
ATOM     24  C   UNL     1     -31.560  13.598 -13.535  0.00  0.00    +0.052 A 
ATOM     25  N   UNL     1     -30.445  14.381 -13.262  0.00  0.00    -0.312 N 
ATOM     26  C   UNL     1     -29.347  13.872 -13.863  0.00  0.00    +0.077 A 
ATOM     27  C   UNL     1     -28.021  14.335 -13.855  0.00  0.00    +0.077 A 
ATOM     28  C   UNL     1     -27.729  17.831 -12.580  0.00  0.00    +0.069 C 
ATOM     29  C   UNL     1     -28.070  16.104 -10.930  0.00  0.00    +0.187 C 
ATOM     32  C   UNL     1     -29.454  16.209 -10.271  0.00  0.00    +0.091 C 
ATOM     36  C   UNL     1     -30.388  15.208 -10.961  0.00  0.00    +0.076 C 
ATOM     37  C   UNL     1     -30.481  15.574 -12.434  0.00  0.00    +0.224 C 
ENDROOT
BRANCH  32  33
ATOM     33  N   UNL     1     -29.365  15.930  -8.830  0.00  0.00    -0.314 NA
ATOM     34  H   UNL     1     -28.864  14.999  -8.664  0.00  0.00    +0.122 HD
ATOM     35  C   UNL     1     -28.595  17.035  -8.241  0.00  0.00    +0.101 C 
ENDBRANCH  32  33
BRANCH  29  30
ATOM     30  O   UNL     1     -27.589  14.767 -10.776  0.00  0.00    -0.374 OA
ATOM     31  C   UNL     1     -26.305  14.859 -10.154  0.00  0.00    +0.194 C 
ENDBRANCH  29  30
TORSDOF 2
