REMARK  Name = 4fny_ligand
REMARK  7 active torsions:
REMARK  status: ('A' for Active; 'I' for Inactive)
REMARK    1  A    between atoms: C19_1  and  O18_2
REMARK    2  A    between atoms: O18_2  and  C13_3
REMARK    3  A    between atoms: C12_5  and  O16_6
REMARK    4  A    between atoms: O16_6  and  C17_7
REMARK    5  A    between atoms: C11_14  and  O20_15
REMARK    6  A    between atoms: O20_15  and  C21_16
REMARK    7  A    between atoms: N25_25  and  C26_26
REMARK                            x       y       z     vdW  Elec       q    Type
REMARK                         _______ _______ _______ _____ _____    ______ ____
ROOT
ATOM      9  C   UNL     1       7.056  13.881  41.546  0.00  0.00    +0.105 A 
ATOM     10  C   UNL     1       7.388  14.869  42.465  0.00  0.00    +0.008 A 
ATOM     11  C   UNL     1       8.105  15.975  42.043  0.00  0.00    +0.016 A 
ATOM     12  C   UNL     1       8.489  16.081  40.709  0.00  0.00    +0.130 A 
ATOM     13  C   UNL     1       8.161  15.101  39.770  0.00  0.00    +0.021 A 
ATOM     14  N   UNL     1       8.644  15.481  38.572  0.00  0.00    -0.295 NA
ATOM     15  C   UNL     1       9.260  16.663  38.764  0.00  0.00    +0.294 A 
ATOM     16  N   UNL     1       9.890  17.467  37.901  0.00  0.00    -0.216 N 
ATOM     17  H   UNL     1      10.151  18.402  38.246  0.00  0.00    +0.224 HD
ATOM     25  O   UNL     1       9.176  17.050  40.064  0.00  0.00    -0.201 OA
ATOM     26  C   UNL     1       7.445  13.990  40.207  0.00  0.00    +0.013 A 
ENDROOT
BRANCH  16  18
ATOM     18  C   UNL     1      10.213  17.184  36.645  0.00  0.00    +0.070 A 
ATOM     19  C   UNL     1      11.443  17.621  36.162  0.00  0.00    +0.017 A 
ATOM     20  C   UNL     1      11.787  17.363  34.839  0.00  0.00    +0.002 A 
ATOM     21  C   UNL     1      10.902  16.674  34.009  0.00  0.00    +0.028 A 
ATOM     22 CL   UNL     1      11.325  16.335  32.370  0.00  0.00    -0.081 Cl
ATOM     23  C   UNL     1       9.674  16.247  34.484  0.00  0.00    +0.002 A 
ATOM     24  C   UNL     1       9.334  16.509  35.804  0.00  0.00    +0.017 A 
ENDBRANCH  16  18
BRANCH   9   8
ATOM      8  O   UNL     1       6.371  12.802  42.015  0.00  0.00    -0.253 OA
BRANCH   8   7
ATOM      3  C   UNL     1       3.147   9.122  43.193  0.00  0.00    +0.129 A 
ATOM      4  C   UNL     1       4.454   9.419  43.581  0.00  0.00    +0.128 A 
ATOM      5  C   UNL     1       5.106  10.552  43.071  0.00  0.00    +0.030 A 
ATOM      6  C   UNL     1       4.453  11.389  42.153  0.00  0.00    +0.027 A 
ATOM      7  C   UNL     1       5.079  12.522  41.620  0.00  0.00    +0.136 A 
ATOM     27  C   UNL     1       4.370  13.322  40.716  0.00  0.00    +0.046 A 
ATOM     28  C   UNL     1       3.073  12.968  40.366  0.00  0.00    +0.063 A 
ATOM     29  N   UNL     1       2.504  11.893  40.878  0.00  0.00    -0.329 NA
ATOM     30  C   UNL     1       3.147  11.097  41.761  0.00  0.00    +0.017 A 
ATOM     33  C   UNL     1       2.502   9.970  42.275  0.00  0.00    +0.027 A 
BRANCH   3   2
ATOM      1  C   UNL     1       1.199   7.656  43.311  0.00  0.00    +0.233 C 
ATOM      2  O   UNL     1       2.544   8.008  43.735  0.00  0.00    -0.318 OA
ENDBRANCH   3   2
BRANCH   4  31
ATOM     31  O   UNL     1       5.049   8.583  44.474  0.00  0.00    -0.321 OA
ATOM     32  C   UNL     1       6.422   8.949  44.798  0.00  0.00    +0.231 C 
ENDBRANCH   4  31
ENDBRANCH   8   7
ENDBRANCH   9   8
TORSDOF 5
