REMARK  Name = 3umx_ligand
REMARK  5 active torsions:
REMARK  status: ('A' for Active; 'I' for Inactive)
REMARK    1  A    between atoms: N4_4  and  C8_8
REMARK    2  A    between atoms: C8_8  and  C9_9
REMARK    3  A    between atoms: C14_14  and  O29_29
REMARK    4  A    between atoms: C16_16  and  C18_18
REMARK    5  A    between atoms: C18_18  and  C19_19
REMARK                            x       y       z     vdW  Elec       q    Type
REMARK                         _______ _______ _______ _____ _____    ______ ____
ROOT
ATOM      7  C   UNL     1      21.167  32.310  -1.498  0.00  0.00    +0.001 A 
ATOM      8  C   UNL     1      20.682  30.975  -1.996  0.00  0.00    +0.085 A 
ATOM     11  C   UNL     1      20.558  29.886  -1.115  0.00  0.00    +0.002 A 
ATOM     12  C   UNL     1      20.836  30.035   0.245  0.00  0.00    -0.009 A 
ATOM     13  C   UNL     1      21.281  31.265   0.667  0.00  0.00    +0.047 A 
ATOM     14  C   UNL     1      21.655  31.739   1.987  0.00  0.00    +0.153 C 
ATOM     15  O   UNL     1      21.617  30.982   3.022  0.00  0.00    -0.387 OA
ATOM     16  C   UNL     1      22.053  33.176   1.899  0.00  0.00    +0.244 C 
ATOM     28  O   UNL     1      21.906  33.553   0.594  0.00  0.00    -0.296 OA
ATOM     29  C   UNL     1      21.449  32.386  -0.124  0.00  0.00    +0.107 A 
ENDROOT
BRANCH   8   9
ATOM      9  O   UNL     1      20.366  30.787  -3.316  0.00  0.00    -0.336 OA
ATOM     10  H   UNL     1      20.497  31.608  -3.795  0.00  0.00    +0.247 HD
ENDBRANCH   8   9
BRANCH   7   6
ATOM      6  C   UNL     1      21.352  33.511  -2.458  0.00  0.00    -0.053 C 
BRANCH   6   5
ATOM      1  C   UNL     1      24.117  33.325  -5.764  0.00  0.00    -0.002 C 
ATOM      2  C   UNL     1      23.765  31.850  -5.451  0.00  0.00    -0.002 C 
ATOM      3  C   UNL     1      23.642  31.506  -3.955  0.00  0.00    -0.022 C 
ATOM      4  C   UNL     1      23.789  32.721  -3.012  0.00  0.00    -0.107 C 
ATOM      5  N   UNL     1      22.630  33.608  -3.247  0.00  0.00    +0.406 NA
ATOM     30  C   UNL     1      22.889  34.827  -4.058  0.00  0.00    -0.107 C 
ATOM     31  C   UNL     1      23.003  34.377  -5.536  0.00  0.00    -0.022 C 
ENDBRANCH   6   5
ENDBRANCH   7   6
BRANCH  16  17
ATOM     17  C   UNL     1      22.495  34.092   2.998  0.00  0.00    +0.090 C 
BRANCH  17  18
ATOM     18  C   UNL     1      22.936  35.507   2.931  0.00  0.00    -0.041 A 
ATOM     19  C   UNL     1      23.425  36.217   4.021  0.00  0.00    +0.096 A 
ATOM     20  N   UNL     1      23.785  37.449   3.565  0.00  0.00    -0.289 N 
ATOM     21  H   UNL     1      24.168  38.203   4.135  0.00  0.00    +0.222 HD
ATOM     22  C   UNL     1      23.548  37.511   2.211  0.00  0.00    +0.060 A 
ATOM     23  C   UNL     1      23.760  38.526   1.296  0.00  0.00    +0.010 A 
ATOM     24  C   UNL     1      23.454  38.304  -0.050  0.00  0.00    -0.024 A 
ATOM     25  C   UNL     1      22.940  37.065  -0.494  0.00  0.00    -0.028 A 
ATOM     26  C   UNL     1      22.692  36.037   0.411  0.00  0.00    -0.021 A 
ATOM     27  C   UNL     1      23.018  36.311   1.737  0.00  0.00    -0.021 A 
ENDBRANCH  17  18
ENDBRANCH  16  17
TORSDOF 5
