REMARK  Name = 4R7H
REMARK  5 active torsions:
REMARK  status: ('A' for Active; 'I' for Inactive)
REMARK    1  A    between atoms: C_8  and  C_9
REMARK    2  A    between atoms: C_9  and  C_10
REMARK    3  A    between atoms: N_16  and  C_17
REMARK    4  A    between atoms: C_17  and  C_18
REMARK    5  A    between atoms: C_22  and  C_25
REMARK                            x       y       z     vdW  Elec       q    Type
REMARK                         _______ _______ _______ _____ _____    ______ ____
ROOT
ATOM      9  C   UNL     1     -19.215   4.054  16.548  0.00  0.00    -0.025 A 
ATOM     10  C   UNL     1     -19.183   5.021  17.546  0.00  0.00    +0.009 A 
ATOM     11  C   UNL     1     -19.687   6.292  17.301  0.00  0.00    +0.044 A 
ATOM     12  C   UNL     1     -20.224   6.593  16.052  0.00  0.00    +0.119 A 
ATOM     13  N   UNL     1     -20.719   7.880  15.859  0.00  0.00    -0.325 N 
ATOM     14  H   UNL     1     -20.672   8.579  16.668  0.00  0.00    +0.148 HD
ATOM     26  N   UNL     1     -20.261   5.659  15.069  0.00  0.00    -0.240 NA
ATOM     27  C   UNL     1     -19.764   4.430  15.331  0.00  0.00    +0.116 A 
ENDROOT
BRANCH   9   8
ATOM      8  C   UNL     1     -18.687   2.671  16.785  0.00  0.00    +0.074 C 
BRANCH   8   5
ATOM      1  C   UNL     1     -19.449  -1.860  17.704  0.00  0.00    +0.060 A 
ATOM      2 CL   UNL     1     -18.406  -3.195  17.456  0.00  0.00    -0.082 Cl
ATOM      3  C   UNL     1     -19.002  -0.596  17.354  0.00  0.00    +0.033 A 
ATOM      4  C   UNL     1     -19.883   0.472  17.566  0.00  0.00    +0.025 A 
ATOM      5  C   UNL     1     -19.828   1.885  17.353  0.00  0.00    -0.014 A 
ATOM      6  C   UNL     1     -21.047   2.383  17.781  0.00  0.00    +0.117 A 
ATOM      7  N   UNL     1     -21.817   1.347  18.232  0.00  0.00    -0.235 NA
ATOM     28  C   UNL     1     -21.130   0.176  18.111  0.00  0.00    +0.160 A 
ATOM     29  N   UNL     1     -21.605  -1.030  18.468  0.00  0.00    -0.234 NA
ATOM     30  C   UNL     1     -20.717  -2.023  18.241  0.00  0.00    +0.133 A 
ENDBRANCH   8   5
ENDBRANCH   9   8
BRANCH  13  15
ATOM     15  C   UNL     1     -21.297   8.305  14.598  0.00  0.00    +0.140 C 
BRANCH  15  16
ATOM     16  C   UNL     1     -20.628   9.597  14.245  0.00  0.00    -0.012 A 
ATOM     17  C   UNL     1     -21.334  10.784  14.061  0.00  0.00    +0.009 A 
ATOM     18  C   UNL     1     -20.645  11.952  13.750  0.00  0.00    +0.032 A 
ATOM     19  C   UNL     1     -19.260  11.898  13.630  0.00  0.00    +0.143 A 
ATOM     24  N   UNL     1     -18.553  10.765  13.815  0.00  0.00    -0.251 NA
ATOM     25  C   UNL     1     -19.248   9.650  14.114  0.00  0.00    +0.116 A 
BRANCH  19  20
ATOM     20  C   UNL     1     -18.460  13.122  13.315  0.00  0.00    +0.434 C 
ATOM     21  F   UNL     1     -18.504  13.568  12.039  0.00  0.00    -0.164 F 
ATOM     22  F   UNL     1     -17.137  12.932  13.569  0.00  0.00    -0.164 F 
ATOM     23  F   UNL     1     -18.850  14.185  14.065  0.00  0.00    -0.164 F 
ENDBRANCH  19  20
ENDBRANCH  15  16
ENDBRANCH  13  15
TORSDOF 5
