REMARK  Name = 3GOI
REMARK  7 active torsions:
REMARK  status: ('A' for Active; 'I' for Inactive)
REMARK    1  A    between atoms: C_6  and  S_24
REMARK    2  A    between atoms: C_8  and  C_14
REMARK    3  A    between atoms: C_9  and  C_12
REMARK    4  A    between atoms: C_10  and  N_19
REMARK    5  A    between atoms: C_11  and  N_21
REMARK    6  A    between atoms: C_13  and  N_19
REMARK    7  A    between atoms: C_15  and  S_24
REMARK                            x       y       z     vdW  Elec       q    Type
REMARK                         _______ _______ _______ _____ _____    ______ ____
ROOT
ATOM      1  C   UNL     1      41.554  14.923  63.965  0.00  0.00    +0.017 A 
ATOM      2  C   UNL     1      40.964  14.792  62.740  0.00  0.00    +0.016 A 
ATOM     10  C   UNL     1      39.942  15.672  62.431  0.00  0.00    +0.030 A 
ATOM     11  C   UNL     1      39.500  16.643  63.299  0.00  0.00    +0.059 A 
ATOM     12  C   UNL     1      40.056  16.728  64.542  0.00  0.00    +0.039 A 
ATOM     26  C   UNL     1      41.086  15.880  64.844  0.00  0.00    +0.025 A 
ENDROOT
BRANCH  11  16
ATOM     16  C   UNL     1      38.377  17.550  62.921  0.00  0.00    +0.252 C 
ATOM     17  O   UNL     1      37.654  18.011  63.768  0.00  0.00    -0.270 OA
ATOM     18  N   UNL     1      38.227  17.784  61.602  0.00  0.00    -0.261 N 
ATOM     19  H   UNL     1      38.931  17.313  60.949  0.00  0.00    +0.157 HD
ATOM     20  C   UNL     1      37.260  18.568  61.006  0.00  0.00    +0.165 A 
ATOM     21  S   UNL     1      36.008  19.251  61.934  0.00  0.00    -0.060 S 
ATOM     22  C   UNL     1      35.379  19.954  60.517  0.00  0.00    +0.071 A 
ATOM     23  C   UNL     1      36.150  19.633  59.430  0.00  0.00    +0.048 A 
ATOM     24  C   UNL     1      35.902  20.064  58.045  0.00  0.00    +0.066 C 
ATOM     25  N   UNL     1      37.221  18.835  59.727  0.00  0.00    -0.230 NA
ENDBRANCH  11  16
BRANCH  12  13
ATOM     13  N   UNL     1      39.560  17.669  65.451  0.00  0.00    -0.346 N 
ATOM     14  H   UNL     1      39.482  18.620  64.966  0.00  0.00    +0.146 HD
ATOM     15  C   UNL     1      40.449  17.788  66.599  0.00  0.00    +0.125 C 
ENDBRANCH  12  13
BRANCH   2   3
ATOM      3  S   UNL     1      41.429  13.556  61.538  0.00  0.00    -0.050 S 
BRANCH   3   4
ATOM      4  C   UNL     1      42.774  12.761  62.274  0.00  0.00    +0.196 A 
ATOM      5  N   UNL     1      42.599  11.724  63.140  0.00  0.00    -0.311 N 
ATOM      6  C   UNL     1      41.307  11.215  63.559  0.00  0.00    +0.152 C 
ATOM      7  C   UNL     1      43.825  11.325  63.544  0.00  0.00    +0.225 A 
ATOM      8  N   UNL     1      44.694  12.072  62.907  0.00  0.00    -0.137 NA
ATOM      9  N   UNL     1      44.038  12.986  62.102  0.00  0.00    -0.122 NA
ENDBRANCH   3   4
ENDBRANCH   2   3
TORSDOF 4
