REMARK  Name = 2XIK
REMARK  11 active torsions:
REMARK  status: ('A' for Active; 'I' for Inactive)
REMARK    1  A    between atoms: C_1  and  C_2
REMARK    2  A    between atoms: C_2  and  N_3
REMARK    3  A    between atoms: N_3  and  C_4
REMARK    4  A    between atoms: N_3  and  C_6
REMARK    5  A    between atoms: C_4  and  C_5
REMARK    6  A    between atoms: C_6  and  C_7
REMARK    7  A    between atoms: C_7  and  N_8
REMARK    8  A    between atoms: C_9  and  C_11
REMARK    9  A    between atoms: C_12  and  C_13
REMARK   10  A    between atoms: C_14  and  C_15
REMARK   11  A    between atoms: C_17  and  C_18
REMARK                            x       y       z     vdW  Elec       q    Type
REMARK                         _______ _______ _______ _____ _____    ______ ____
ROOT
ATOM      9  C   UNL     1      -4.150  -9.074 -22.638  0.00  0.00    +0.059 C 
ATOM     10  C   UNL     1      -3.887 -10.242 -23.338  0.00  0.00    +0.046 C 
ATOM     11  N   UNL     1      -3.921 -11.282 -22.503  0.00  0.00    -0.270 NA
ATOM     12  C   UNL     1      -4.168 -10.857 -21.258  0.00  0.00    +0.135 C 
ATOM     26  C   UNL     1      -3.644 -10.354 -24.847  0.00  0.00    +0.066 C 
ATOM     27  C   UNL     1      -4.300  -9.462 -21.312  0.00  0.00    -0.025 C 
ATOM     28  C   UNL     1      -4.591  -8.542 -20.111  0.00  0.00    +0.043 C 
ENDROOT
BRANCH  12  13
ATOM     13  C   UNL     1      -4.259 -11.525 -20.031  0.00  0.00    +0.024 C 
ATOM     14  C   UNL     1      -4.219 -12.912 -19.820  0.00  0.00    +0.045 C 
ATOM     15  C   UNL     1      -4.191 -13.958 -20.745  0.00  0.00    +0.249 C 
ATOM     16  O   UNL     1      -4.002 -13.883 -21.958  0.00  0.00    -0.270 OA
ATOM     17  N   UNL     1      -4.314 -15.120 -20.099  0.00  0.00    -0.281 N 
ATOM     18  H   UNL     1      -4.336 -16.086 -20.558  0.00  0.00    +0.155 HD
ATOM     19  C   UNL     1      -4.405 -14.883 -18.787  0.00  0.00    +0.042 A 
ATOM     20  C   UNL     1      -4.535 -15.751 -17.705  0.00  0.00    +0.025 A 
ATOM     21  C   UNL     1      -4.629 -15.251 -16.406  0.00  0.00    +0.022 A 
ATOM     22  C   UNL     1      -4.613 -13.876 -16.177  0.00  0.00    +0.042 A 
ATOM     23 CL   UNL     1      -4.761 -13.288 -14.548  0.00  0.00    -0.084 Cl
ATOM     24  C   UNL     1      -4.494 -12.993 -17.263  0.00  0.00    +0.030 A 
ATOM     25  C   UNL     1      -4.367 -13.500 -18.565  0.00  0.00    +0.009 A 
ENDBRANCH  12  13
BRANCH   9   8
ATOM      6  N   UNL     1      -4.584  -6.658 -22.485  0.00  0.00    -0.310 N 
ATOM      7  H   UNL     1      -4.961  -6.894 -21.512  0.00  0.00    +0.149 HD
ATOM      8  C   UNL     1      -4.123  -7.657 -23.248  0.00  0.00    +0.246 C 
ATOM     29  O   UNL     1      -3.653  -7.491 -24.374  0.00  0.00    -0.270 OA
BRANCH   6   5
ATOM      5  C   UNL     1      -4.598  -5.243 -22.920  0.00  0.00    +0.120 C 
BRANCH   5   4
ATOM      4  C   UNL     1      -3.159  -4.715 -23.061  0.00  0.00    +0.103 C 
BRANCH   4   3
ATOM      3  N   UNL     1      -2.895  -3.525 -22.229  0.00  0.00    -0.301 NA
BRANCH   3   2
ATOM      1  C   UNL     1      -3.337  -1.120 -22.329  0.00  0.00    +0.020 C 
ATOM      2  C   UNL     1      -3.964  -2.515 -22.264  0.00  0.00    +0.081 C 
ENDBRANCH   3   2
BRANCH   3  30
ATOM     30  C   UNL     1      -2.548  -3.883 -20.847  0.00  0.00    +0.081 C 
ATOM     31  C   UNL     1      -1.381  -3.007 -20.385  0.00  0.00    +0.020 C 
ENDBRANCH   3  30
ENDBRANCH   4   3
ENDBRANCH   5   4
ENDBRANCH   6   5
ENDBRANCH   9   8
TORSDOF 7
