REMARK  Name = 3R7U
REMARK  6 active torsions:
REMARK  status: ('A' for Active; 'I' for Inactive)
REMARK    1  A    between atoms: C_1  and  N_2
REMARK    2  A    between atoms: C_7  and  C_14
REMARK    3  A    between atoms: N_8  and  C_15
REMARK    4  A    between atoms: N_11  and  C_22
REMARK    5  A    between atoms: C_15  and  C_16
REMARK    6  A    between atoms: C_19  and  C_22
REMARK                            x       y       z     vdW  Elec       q    Type
REMARK                         _______ _______ _______ _____ _____    ______ ____
ROOT
ATOM      1  C   UNL     1      94.707  80.575 -47.113  0.00  0.00    +0.123 C 
ATOM      2  C   UNL     1      93.598  80.477 -46.230  0.00  0.00    +0.012 C 
ATOM      3  C   UNL     1      92.309  80.902 -46.620  0.00  0.00    +0.085 C 
ATOM      4  C   UNL     1      92.058  81.463 -47.942  0.00  0.00    +0.052 C 
ATOM      5  N   UNL     1      90.853  81.866 -48.338  0.00  0.00    -0.282 NA
ATOM     17  C   UNL     1      93.202  81.567 -48.841  0.00  0.00    +0.060 C 
ATOM     23  C   UNL     1      94.495  81.122 -48.413  0.00  0.00    +0.047 C 
ENDROOT
BRANCH  17  18
ATOM     18  C   UNL     1      93.112  82.112 -50.231  0.00  0.00    +0.243 C 
ATOM     19  O   UNL     1      92.214  83.053 -50.513  0.00  0.00    -0.270 OA
ATOM     20  N   UNL     1      93.915  81.657 -51.216  0.00  0.00    -0.325 N 
ATOM     21  H   UNL     1      93.833  82.062 -52.203  0.00  0.00    +0.145 HD
ATOM     22  H   UNL     1      94.634  80.892 -51.010  0.00  0.00    +0.145 HD
ENDBRANCH  17  18
BRANCH   1  24
ATOM     24  N   UNL     1      95.971  80.146 -46.720  0.00  0.00    +0.056 N 
ATOM     25  O   UNL     1      97.015  80.231 -47.548  0.00  0.00    -0.126 OA
ATOM     26  O   UNL     1      96.177  79.633 -45.500  0.00  0.00    -0.126 OA
ENDBRANCH   1  24
BRANCH   5   6
ATOM      6  C   UNL     1      89.573  81.788 -47.587  0.00  0.00    +0.177 C 
BRANCH   6   7
ATOM      7  C   UNL     1      89.373  82.899 -46.585  0.00  0.00    -0.026 A 
ATOM      8  C   UNL     1      89.666  84.257 -46.911  0.00  0.00    +0.006 A 
ATOM      9  C   UNL     1      89.471  85.285 -45.950  0.00  0.00    +0.005 A 
ATOM     10  C   UNL     1      88.975  84.977 -44.633  0.00  0.00    -0.034 A 
ATOM     15  C   UNL     1      88.682  83.608 -44.318  0.00  0.00    +0.005 A 
ATOM     16  C   UNL     1      88.878  82.587 -45.280  0.00  0.00    +0.006 A 
BRANCH  10  11
ATOM     11  C   UNL     1      88.769  85.936 -43.656  0.00  0.00    +0.113 C 
BRANCH  11  12
ATOM     12  N   UNL     1      87.354  86.253 -43.454  0.00  0.00    -0.326 NA
ATOM     13  H   UNL     1      86.938  86.625 -44.367  0.00  0.00    +0.118 HD
ATOM     14  H   UNL     1      86.829  85.369 -43.157  0.00  0.00    +0.118 HD
ENDBRANCH  11  12
ENDBRANCH  10  11
ENDBRANCH   6   7
ENDBRANCH   5   6
TORSDOF 6
