REMARK  Name = 9GY
REMARK  3 active torsions:
REMARK  status: ('A' for Active; 'I' for Inactive)
REMARK    1  A    between atoms: CBA_3  and  CAC_5
REMARK    2  A    between atoms: CAE_10  and  CAG_11
REMARK    3  A    between atoms: CAT_25  and  CAV_27
REMARK                            x       y       z     vdW  Elec       q    Type
REMARK                         _______ _______ _______ _____ _____    ______ ____
ROOT
ATOM      9  C   UNL     1       8.759  18.828  -6.756  0.00  0.00    +0.001 A 
ATOM     10  C   UNL     1      10.085  18.684  -6.300  0.00  0.00    +0.016 A 
ATOM     11  C   UNL     1      11.060  18.031  -7.077  0.00  0.00    +0.068 A 
ATOM     12  N   UNL     1      12.368  17.914  -6.683  0.00  0.00    -0.250 N 
ATOM     13  C   UNL     1      12.902  17.508  -5.496  0.00  0.00    +0.287 C 
ATOM     19  O   UNL     1      14.125  17.619  -5.340  0.00  0.00    -0.266 OA
ATOM     20  C   UNL     1      13.288  18.522  -7.695  0.00  0.00    +0.119 C 
ATOM     21  C   UNL     1      13.144  17.696  -9.001  0.00  0.00    +0.100 C 
ATOM     22  N   UNL     1      11.782  17.026  -9.076  0.00  0.00    -0.257 N 
ATOM     23  C   UNL     1      11.698  15.902  -9.833  0.00  0.00    +0.230 C 
ATOM     24  C   UNL     1      10.339  15.153  -9.936  0.00  0.00    +0.095 C 
ATOM     25  O   UNL     1      12.667  15.462 -10.446  0.00  0.00    -0.275 OA
ATOM     26  C   UNL     1      13.407  18.558 -10.249  0.00  0.00    +0.024 C 
ATOM     27  C   UNL     1      10.763  17.590  -8.368  0.00  0.00    +0.068 A 
ATOM     28  C   UNL     1       9.457  17.763  -8.861  0.00  0.00    +0.016 A 
ATOM     29  C   UNL     1       8.486  18.361  -8.049  0.00  0.00    +0.001 A 
ENDROOT
BRANCH   9   8
ATOM      4  C   UNL     1       5.365  19.880  -5.541  0.00  0.00    +0.055 A 
ATOM      5  C   UNL     1       5.730  20.801  -4.551  0.00  0.00    +0.005 A 
ATOM      6  C   UNL     1       7.077  21.071  -4.275  0.00  0.00    +0.000 A 
ATOM      7  C   UNL     1       8.072  20.413  -5.023  0.00  0.00    +0.000 A 
ATOM      8  C   UNL     1       7.740  19.458  -6.000  0.00  0.00    +0.000 A 
ATOM     30  C   UNL     1       6.376  19.207  -6.256  0.00  0.00    +0.005 A 
BRANCH   4   3
ATOM      1  C   UNL     1       1.753  20.496  -6.092  0.00  0.00    +0.139 C 
ATOM      2  N   UNL     1       3.217  20.700  -5.949  0.00  0.00    -0.200 NA
ATOM      3  C   UNL     1       3.990  19.629  -5.743  0.00  0.00    +0.265 C 
ATOM     31  O   UNL     1       3.533  18.489  -5.692  0.00  0.00    -0.268 OA
ENDBRANCH   4   3
ENDBRANCH   9   8
BRANCH  13  14
ATOM     14  C   UNL     1      12.237  16.865  -4.525  0.00  0.00    +0.199 A 
ATOM     15  C   UNL     1      12.763  16.553  -3.335  0.00  0.00    +0.045 A 
ATOM     16  C   UNL     1      11.863  15.875  -2.623  0.00  0.00    +0.044 A 
ATOM     17  C   UNL     1      10.745  15.746  -3.345  0.00  0.00    +0.180 A 
ATOM     18  O   UNL     1      10.960  16.370  -4.588  0.00  0.00    -0.446 OA
ENDBRANCH  13  14
TORSDOF 3
