REMARK  Name = 5NHH
REMARK  6 active torsions:
REMARK  status: ('A' for Active; 'I' for Inactive)
REMARK    1  A    between atoms: C_1  and  C_2
REMARK    2  A    between atoms: C_1  and  O_17
REMARK    3  A    between atoms: C_2  and  N_16
REMARK    4  A    between atoms: C_5  and  C_6
REMARK    5  A    between atoms: C_10  and  N_25
REMARK    6  A    between atoms: O_17  and  C_18
REMARK                            x       y       z     vdW  Elec       q    Type
REMARK                         _______ _______ _______ _____ _____    ______ ____
ROOT
ATOM      5  N   UNL     1     -11.817  14.309  40.765  0.00  0.00    -0.295 N 
ATOM      6  C   UNL     1     -12.533  13.257  40.297  0.00  0.00    +0.249 C 
ATOM      7  C   UNL     1     -13.927  13.224  40.663  0.00  0.00    +0.060 A 
ATOM      8  C   UNL     1     -14.441  14.104  41.572  0.00  0.00    +0.056 A 
ATOM      9  C   UNL     1     -13.656  15.143  42.292  0.00  0.00    +0.075 C 
ATOM     10  N   UNL     1     -15.776  13.834  41.739  0.00  0.00    -0.249 NA
ATOM     11  C   UNL     1     -16.123  12.783  40.925  0.00  0.00    +0.090 A 
ATOM     26  C   UNL     1     -14.996  12.378  40.238  0.00  0.00    +0.044 A 
ATOM     27  O   UNL     1     -12.027  12.324  39.685  0.00  0.00    -0.270 OA
ATOM     28  C   UNL     1     -12.390  15.453  41.503  0.00  0.00    +0.114 C 
ENDROOT
BRANCH  11  12
ATOM     12  C   UNL     1     -17.498  12.275  40.944  0.00  0.00    +0.094 A 
ATOM     13  N   UNL     1     -18.382  13.019  41.626  0.00  0.00    -0.211 NA
ATOM     14  C   UNL     1     -19.648  12.544  41.685  0.00  0.00    +0.224 A 
ATOM     15  N   UNL     1     -20.551  13.280  42.371  0.00  0.00    -0.247 NA
ATOM     22  N   UNL     1     -20.089  11.390  41.149  0.00  0.00    -0.331 N 
ATOM     23  H   UNL     1     -21.102  11.061  41.255  0.00  0.00    +0.168 HD
ATOM     24  C   UNL     1     -19.169  10.679  40.471  0.00  0.00    +0.088 A 
ATOM     25  C   UNL     1     -17.854  11.086  40.317  0.00  0.00    +0.047 A 
BRANCH  15  16
ATOM     16  C   UNL     1     -20.338  14.594  42.996  0.00  0.00    +0.113 C 
ATOM     17  C   UNL     1     -21.639  15.393  43.059  0.00  0.00    +0.055 C 
ATOM     18  C   UNL     1     -21.427  16.705  43.781  0.00  0.00    +0.162 C 
ATOM     19  O   UNL     1     -20.865  16.499  45.095  0.00  0.00    -0.380 OA
ATOM     20  C   UNL     1     -19.583  15.853  45.000  0.00  0.00    +0.162 C 
ATOM     21  C   UNL     1     -19.713  14.475  44.381  0.00  0.00    +0.055 C 
ENDBRANCH  15  16
ENDBRANCH  11  12
BRANCH   5   4
ATOM      4  C   UNL     1     -10.390  14.415  40.429  0.00  0.00    +0.136 C 
BRANCH   4   1
ATOM      1  C   UNL     1     -10.070  15.543  39.466  0.00  0.00    +0.178 C 
BRANCH   1   2
ATOM      2  O   UNL     1     -10.986  15.476  38.392  0.00  0.00    -0.381 OA
ATOM      3  C   UNL     1     -10.925  16.616  37.567  0.00  0.00    +0.193 C 
ENDBRANCH   1   2
ENDBRANCH   4   1
ENDBRANCH   5   4
TORSDOF 5
