REMARK  Name = 4jik_ligand
REMARK  4 active torsions:
REMARK  status: ('A' for Active; 'I' for Inactive)
REMARK    1  A    between atoms: C02_2  and  C11_11
REMARK    2  A    between atoms: C06_6  and  C12_12
REMARK    3  A    between atoms: C09_9  and  N10_10
REMARK    4  A    between atoms: N10_10  and  C13_13
REMARK                            x       y       z     vdW  Elec       q    Type
REMARK                         _______ _______ _______ _____ _____    ______ ____
ROOT
ATOM      1  N   UNL     1      14.766  -2.985   8.238  0.00  0.00    -0.322 NA
ATOM      2  C   UNL     1      13.492  -2.754   8.515  0.00  0.00    +0.181 A 
ATOM      3  C   UNL     1      12.588  -3.433   9.352  0.00  0.00    +0.112 A 
ATOM     14  C   UNL     1      11.317  -2.931   9.429  0.00  0.00    +0.087 A 
ATOM     15  N   UNL     1      10.903  -1.839   8.763  0.00  0.00    -0.266 NA
ATOM     16  C   UNL     1      11.751  -1.234   7.992  0.00  0.00    +0.257 A 
ATOM     22  N   UNL     1      13.041  -1.645   7.843  0.00  0.00    -0.172 N 
ATOM     23  C   UNL     1      14.121  -1.175   7.116  0.00  0.00    +0.160 A 
ATOM     24  C   UNL     1      15.153  -2.000   7.365  0.00  0.00    +0.022 A 
ENDROOT
BRANCH  24  25
ATOM     25  C   UNL     1      16.499  -1.959   6.848  0.00  0.00    -0.025 A 
ATOM     26  C   UNL     1      17.369  -3.033   7.088  0.00  0.00    +0.001 A 
ATOM     27  C   UNL     1      18.677  -2.996   6.583  0.00  0.00    +0.011 A 
ATOM     28  C   UNL     1      19.106  -1.878   5.837  0.00  0.00    +0.037 A 
ATOM     29 CL   UNL     1      20.731  -1.822   5.224  0.00  0.00    -0.073 Cl
ATOM     30  C   UNL     1      18.242  -0.811   5.599  0.00  0.00    +0.011 A 
ATOM     31  C   UNL     1      16.945  -0.847   6.097  0.00  0.00    +0.001 A 
ENDBRANCH  24  25
BRANCH  16  17
ATOM     17  C   UNL     1      11.290  -0.026   7.265  0.00  0.00    +0.264 C 
ATOM     18  O   UNL     1      12.005   0.567   6.458  0.00  0.00    -0.372 OA
ATOM     19  N   UNL     1      10.050   0.388   7.558  0.00  0.00    -0.294 N 
ATOM     20  H   UNL     1       9.502  -0.111   8.229  0.00  0.00    +0.181 HD
ATOM     21  H   UNL     1       9.673   1.196   7.106  0.00  0.00    +0.181 HD
ENDBRANCH  16  17
BRANCH   3   4
ATOM      4  N   UNL     1      12.996  -4.535  10.040  0.00  0.00    -0.307 N 
ATOM      5  H   UNL     1      13.761  -5.085   9.624  0.00  0.00    +0.179 HD
BRANCH   4   6
ATOM      6  C   UNL     1      12.467  -5.005  11.285  0.00  0.00    +0.137 C 
ATOM      7  C   UNL     1      13.027  -6.378  11.587  0.00  0.00    +0.038 C 
ATOM      8  C   UNL     1      12.412  -6.870  12.895  0.00  0.00    +0.053 C 
ATOM      9  C   UNL     1      12.740  -5.865  14.030  0.00  0.00    +0.129 C 
ATOM     10  N   UNL     1      12.215  -4.537  13.682  0.00  0.00    +0.229 N 
ATOM     11  H   UNL     1      12.430  -3.895  14.429  0.00  0.00    +0.201 HD
ATOM     12  H   UNL     1      11.215  -4.600  13.571  0.00  0.00    +0.201 HD
ATOM     13  C   UNL     1      12.798  -4.032  12.441  0.00  0.00    +0.157 C 
ENDBRANCH   4   6
ENDBRANCH   3   4
TORSDOF 4
