REMARK  Name = 4e4l_ligand
REMARK  4 active torsions:
REMARK  status: ('A' for Active; 'I' for Inactive)
REMARK    1  A    between atoms: C1_1  and  C2_2
REMARK    2  A    between atoms: C2_2  and  N12_12
REMARK    3  A    between atoms: N5_5  and  S8_8
REMARK    4  A    between atoms: S8_8  and  C11_11
REMARK                            x       y       z     vdW  Elec       q    Type
REMARK                         _______ _______ _______ _____ _____    ______ ____
ROOT
ATOM      3  N   UNL     1     -13.906  28.654  -0.750  0.00  0.00    -0.229 N 
ATOM      4  C   UNL     1     -14.511  27.427  -0.557  0.00  0.00    +0.094 A 
ATOM      5  C   UNL     1     -15.769  26.857  -0.847  0.00  0.00    +0.022 A 
ATOM      6  C   UNL     1     -16.004  25.516  -0.499  0.00  0.00    +0.122 A 
ATOM      7  N   UNL     1     -15.072  24.774   0.114  0.00  0.00    -0.302 NA
ATOM      8  C   UNL     1     -13.891  25.300   0.432  0.00  0.00    +0.068 A 
ATOM      9  N   UNL     1     -17.267  25.228  -0.914  0.00  0.00    -0.273 N 
ATOM     10  H   UNL     1     -17.721  24.309  -0.808  0.00  0.00    +0.229 HD
ATOM     11  C   UNL     1     -17.856  26.322  -1.492  0.00  0.00    +0.113 A 
ATOM     12  C   UNL     1     -17.007  27.346  -1.484  0.00  0.00    -0.031 A 
ATOM     13  C   UNL     1     -13.562  26.617   0.093  0.00  0.00    +0.046 A 
ATOM     14  N   UNL     1     -12.446  27.378   0.246  0.00  0.00    -0.307 NA
ATOM     15  C   UNL     1     -12.624  28.570  -0.245  0.00  0.00    +0.239 A 
ENDROOT
BRANCH   3   2
ATOM      1  C   UNL     1     -14.790  29.415  -2.937  0.00  0.00    +0.047 C 
ATOM      2  C   UNL     1     -14.450  29.838  -1.463  0.00  0.00    +0.081 C 
ATOM     16  C   UNL     1     -15.669  30.374  -0.737  0.00  0.00    +0.060 C 
ATOM     17  C   UNL     1     -16.170  31.677  -1.368  0.00  0.00    +0.128 C 
ATOM     18  N   UNL     1     -15.092  32.659  -1.654  0.00  0.00    -0.238 NA
ATOM     23  C   UNL     1     -13.734  32.248  -2.037  0.00  0.00    +0.128 C 
ATOM     24  C   UNL     1     -13.321  30.872  -1.494  0.00  0.00    +0.060 C 
BRANCH  18  19
ATOM     19  S   UNL     1     -15.458  34.261  -1.709  0.00  0.00    +0.039 S 
ATOM     20  C   UNL     1     -16.152  34.519  -3.376  0.00  0.00    +0.218 C 
ATOM     21  O   UNL     1     -14.231  34.997  -1.631  0.00  0.00    -0.156 OA
ATOM     22  O   UNL     1     -16.458  34.508  -0.722  0.00  0.00    -0.156 OA
ENDBRANCH  18  19
ENDBRANCH   3   2
TORSDOF 2
