REMARK  Name = 2r3i_ligand
REMARK  4 active torsions:
REMARK  status: ('A' for Active; 'I' for Inactive)
REMARK    1  A    between atoms: C07_7  and  C11_11
REMARK    2  A    between atoms: C09_9  and  N10_10
REMARK    3  A    between atoms: N10_10  and  C12_12
REMARK    4  A    between atoms: C12_12  and  C13_13
REMARK                            x       y       z     vdW  Elec       q    Type
REMARK                         _______ _______ _______ _____ _____    ______ ____
ROOT
ATOM      1  C   UNL     1      -0.454  31.525   8.094  0.00  0.00    -0.026 A 
ATOM      2  C   UNL     1       0.451  32.178   7.215  0.00  0.00    +0.040 A 
ATOM      3  N   UNL     1       1.458  31.363   6.836  0.00  0.00    -0.216 NA
ATOM      4  N   UNL     1       1.226  30.196   7.470  0.00  0.00    -0.115 N 
ATOM      5  C   UNL     1       2.047  29.124   7.495  0.00  0.00    +0.222 A 
ATOM     15  C   UNL     1       1.666  28.051   8.254  0.00  0.00    +0.062 A 
ATOM     16  C   UNL     1       0.450  28.134   8.983  0.00  0.00    +0.028 A 
ATOM     24  N   UNL     1      -0.328  29.205   9.017  0.00  0.00    -0.296 NA
ATOM     25  C   UNL     1       0.087  30.250   8.284  0.00  0.00    +0.144 A 
ENDROOT
BRANCH  16  17
ATOM     17  C   UNL     1       0.070  26.987   9.814  0.00  0.00    +0.035 A 
ATOM     18  C   UNL     1      -0.270  27.160  11.182  0.00  0.00    +0.149 A 
ATOM     19  F   UNL     1      -0.226  28.405  11.813  0.00  0.00    -0.177 F 
ATOM     20  C   UNL     1      -0.632  26.024  11.953  0.00  0.00    +0.039 A 
ATOM     21  C   UNL     1      -0.701  24.762  11.362  0.00  0.00    +0.005 A 
ATOM     22  C   UNL     1      -0.366  24.580  10.023  0.00  0.00    -0.001 A 
ATOM     23  C   UNL     1       0.021  25.689   9.261  0.00  0.00    +0.016 A 
ENDBRANCH  16  17
BRANCH   5   6
ATOM      6  N   UNL     1       3.198  29.227   6.796  0.00  0.00    -0.258 N 
ATOM      7  H   UNL     1       3.254  29.857   5.983  0.00  0.00    +0.197 HD
BRANCH   6   8
ATOM      8  C   UNL     1       4.353  28.450   7.193  0.00  0.00    +0.221 C 
BRANCH   8   9
ATOM      9  C   UNL     1       4.595  27.337   6.250  0.00  0.00    +0.000 A 
ATOM     10  C   UNL     1       4.855  27.594   4.910  0.00  0.00    +0.035 A 
ATOM     11  C   UNL     1       5.099  26.509   4.050  0.00  0.00    +0.083 A 
ATOM     12  N   UNL     1       5.031  25.219   4.451  0.00  0.00    -0.307 NA
ATOM     13  C   UNL     1       4.757  24.986   5.755  0.00  0.00    +0.083 A 
ATOM     14  C   UNL     1       4.514  26.019   6.690  0.00  0.00    +0.035 A 
ENDBRANCH   8   9
ENDBRANCH   6   8
ENDBRANCH   5   6
TORSDOF 4
