REMARK  Name = GAB
REMARK  1 active torsions:
REMARK  status: ('A' for Active; 'I' for Inactive)
REMARK    1  A    between atoms: C1'_1  and  C1_4
REMARK                            x       y       z     vdW  Elec       q    Type
REMARK                         _______ _______ _______ _____ _____    ______ ____
ROOT
ATOM      3  C   UNL     1      92.745  13.564 131.563  0.00  0.00    +0.081 A 
ATOM      4  C   UNL     1      92.788  14.694 132.378  0.00  0.00    +0.025 A 
ATOM      5  C   UNL     1      92.930  15.970 131.826  0.00  0.00    +0.089 A 
ATOM      6  N   UNL     1      92.870  17.096 132.635  0.00  0.00    -0.128 NA
ATOM      7  C   UNL     1      93.054  16.095 130.438  0.00  0.00    +0.018 A 
ATOM      8  C   UNL     1      93.037  14.975 129.627  0.00  0.00    +0.002 A 
ATOM      9  C   UNL     1      92.890  13.715 130.182  0.00  0.00    +0.007 A 
ENDROOT
BRANCH   3   1
ATOM      1  C   UNL     1      92.410  12.233 132.152  0.00  0.00    +0.388 C 
ATOM      2  O   UNL     1      92.416  12.042 133.366  0.00  0.00    -0.241 OA
ATOM     10  O   UNL     1      92.137  11.301 131.280  0.00  0.00    -0.241 OA
ENDBRANCH   3   1
TORSDOF 1
