REMARK  Name = 9B6
REMARK  5 active torsions:
REMARK  status: ('A' for Active; 'I' for Inactive)
REMARK    1  A    between atoms: O05_2  and  C06_3
REMARK    2  A    between atoms: N10_7  and  C11_8
REMARK    3  A    between atoms: C20_13  and  O21_14
REMARK    4  A    between atoms: O21_14  and  C22_15
REMARK    5  A    between atoms: C37_27  and  C38_28
REMARK                            x       y       z     vdW  Elec       q    Type
REMARK                         _______ _______ _______ _____ _____    ______ ____
ROOT
ATOM      3  C   UNL     1      13.169   3.884   9.600  0.00  0.00    +0.225 C 
ATOM      4  C   UNL     1      12.743   4.260  10.886  0.00  0.00    +0.059 C 
ATOM      5  C   UNL     1      12.976   3.425  11.942  0.00  0.00    +0.025 C 
ATOM      6  C   UNL     1      13.646   2.224  11.630  0.00  0.00    +0.101 C 
ATOM      7  N   UNL     1      13.903   1.352  12.663  0.00  0.00    -0.241 NA
ATOM      8  C   UNL     1      14.529   0.234  12.378  0.00  0.00    +0.120 C 
ATOM      9  C   UNL     1      14.959  -0.148  11.111  0.00  0.00    +0.123 C 
ATOM     10  N   UNL     1      15.622  -1.234  10.564  0.00  0.00    -0.189 NA
ATOM     11  C   UNL     1      15.776  -1.064   9.216  0.00  0.00    +0.354 C 
ATOM     12  N   UNL     1      15.225   0.103   8.882  0.00  0.00    -0.253 N 
ATOM     24  O   UNL     1      16.316  -1.824   8.430  0.00  0.00    -0.244 OA
ATOM     25  C   UNL     1      14.720   0.701  10.028  0.00  0.00    +0.107 C 
ATOM     26  C   UNL     1      14.043   1.932  10.286  0.00  0.00    +0.120 C 
ATOM     34  N   UNL     1      13.789   2.794   9.249  0.00  0.00    -0.209 NA
ENDROOT
BRANCH   4  27
ATOM     27  C   UNL     1      12.056   5.554  11.095  0.00  0.00    +0.054 A 
ATOM     28  C   UNL     1      10.792   5.794  11.675  0.00  0.00    +0.101 A 
ATOM     29  C   UNL     1       9.797   4.834  12.236  0.00  0.00    +0.056 C 
ATOM     30  N   UNL     1      10.518   7.071  11.679  0.00  0.00    -0.082 NA
ATOM     31  O   UNL     1      11.637   7.716  11.090  0.00  0.00    -0.358 OA
ATOM     32  C   UNL     1      12.535   6.778  10.764  0.00  0.00    +0.155 A 
ATOM     33  C   UNL     1      13.791   7.263  10.137  0.00  0.00    +0.075 C 
ENDBRANCH   4  27
BRANCH  12  13
ATOM     13  C   UNL     1      15.197   0.672   7.555  0.00  0.00    +0.102 A 
ATOM     14  C   UNL     1      16.400   1.177   7.071  0.00  0.00    +0.021 A 
ATOM     15  C   UNL     1      16.441   1.758   5.816  0.00  0.00    +0.002 A 
ATOM     16  C   UNL     1      15.300   1.856   5.054  0.00  0.00    +0.003 A 
ATOM     17  C   UNL     1      14.094   1.365   5.526  0.00  0.00    +0.039 A 
ATOM     18  C   UNL     1      14.034   0.778   6.785  0.00  0.00    +0.163 A 
BRANCH  18  19
ATOM     19  O   UNL     1      12.892   0.251   7.387  0.00  0.00    -0.403 OA
BRANCH  19  20
ATOM     20  C   UNL     1      11.750   0.319   6.704  0.00  0.00    +0.575 C 
ATOM     21  F   UNL     1      10.797  -0.182   7.464  0.00  0.00    -0.133 F 
ATOM     22  F   UNL     1      11.375   1.549   6.384  0.00  0.00    -0.133 F 
ATOM     23  F   UNL     1      11.761  -0.412   5.605  0.00  0.00    -0.133 F 
ENDBRANCH  19  20
ENDBRANCH  18  19
ENDBRANCH  12  13
BRANCH   3   2
ATOM      1  C   UNL     1      13.440   4.607   7.346  0.00  0.00    +0.254 C 
ATOM      2  O   UNL     1      12.867   4.793   8.648  0.00  0.00    -0.456 OA
ENDBRANCH   3   2
TORSDOF 5
