REMARK  Name = 2osc_ligand
REMARK  6 active torsions:
REMARK  status: ('A' for Active; 'I' for Inactive)
REMARK    1  A    between atoms: C9_1  and  N3_8
REMARK    2  A    between atoms: C11_3  and  N4_20
REMARK    3  A    between atoms: C12_4  and  C15_7
REMARK    4  A    between atoms: C8_9  and  C17_11
REMARK    5  A    between atoms: C19_13  and  C7_16
REMARK    6  A    between atoms: C21_21  and  C4_32
REMARK                            x       y       z     vdW  Elec       q    Type
REMARK                         _______ _______ _______ _____ _____    ______ ____
ROOT
ATOM      1  C   UNL     1      53.320  -0.377  71.129  0.00  0.00    +0.050 A 
ATOM     16  C   UNL     1      52.946  -1.708  70.640  0.00  0.00    -0.020 A 
ATOM     17  C   UNL     1      52.718  -2.808  71.597  0.00  0.00    -0.033 A 
ATOM     18  C   UNL     1      52.868  -2.599  73.048  0.00  0.00    -0.036 A 
ATOM     19  C   UNL     1      52.600  -3.653  74.022  0.00  0.00    +0.062 C 
ATOM     20  C   UNL     1      53.270  -1.270  73.549  0.00  0.00    +0.052 A 
ATOM     35  C   UNL     1      53.482  -0.160  72.579  0.00  0.00    +0.015 A 
ENDROOT
BRANCH  20  21
ATOM     21  N   UNL     1      53.493  -1.090  74.944  0.00  0.00    -0.262 N 
ATOM     22  H   UNL     1      54.464  -1.196  75.270  0.00  0.00    +0.213 HD
ATOM     23  C   UNL     1      52.527  -0.781  75.931  0.00  0.00    +0.146 A 
ATOM     24  N   UNL     1      51.202  -0.509  75.546  0.00  0.00    -0.276 NA
ATOM     25  C   UNL     1      50.142  -0.191  76.412  0.00  0.00    +0.081 A 
ATOM     26  C   UNL     1      50.400  -0.130  77.844  0.00  0.00    +0.018 A 
ATOM     27  C   UNL     1      51.772  -0.413  78.253  0.00  0.00    +0.035 A 
ATOM     28  C   UNL     1      52.892  -0.745  77.358  0.00  0.00    +0.058 A 
BRANCH  28  29
ATOM     29  C   UNL     1      54.319  -1.036  77.838  0.00  0.00    +0.071 A 
ATOM     30  N   UNL     1      55.362  -1.245  76.862  0.00  0.00    -0.262 NA
ATOM     31  C   UNL     1      56.687  -1.441  77.159  0.00  0.00    +0.197 A 
ATOM     32  N   UNL     1      56.998  -1.429  78.500  0.00  0.00    -0.267 NA
ATOM     33  C   UNL     1      56.076  -1.239  79.500  0.00  0.00    +0.118 A 
ATOM     34  C   UNL     1      54.694  -1.035  79.231  0.00  0.00    +0.071 A 
ENDBRANCH  28  29
ENDBRANCH  20  21
BRANCH   1   2
ATOM      2  N   UNL     1      53.469   0.627  70.166  0.00  0.00    -0.239 N 
ATOM      3  H   UNL     1      53.371   0.327  69.217  0.00  0.00    +0.223 HD
ATOM      4  C   UNL     1      53.727   1.950  70.334  0.00  0.00    +0.238 C 
ATOM      5  O   UNL     1      53.977   2.524  71.393  0.00  0.00    -0.373 OA
BRANCH   4   6
ATOM      6  C   UNL     1      53.706   2.716  69.095  0.00  0.00    +0.085 A 
ATOM      7  C   UNL     1      54.811   3.646  68.957  0.00  0.00    +0.081 A 
ATOM      8  C   UNL     1      54.926   4.527  67.779  0.00  0.00    +0.054 A 
ATOM     13  C   UNL     1      53.886   4.415  66.729  0.00  0.00    +0.061 A 
ATOM     14  C   UNL     1      52.771   3.457  66.873  0.00  0.00    +0.044 A 
ATOM     15  C   UNL     1      52.671   2.607  68.059  0.00  0.00    +0.076 A 
BRANCH   8   9
ATOM      9  C   UNL     1      56.088   5.547  67.716  0.00  0.00    +0.378 C 
ATOM     10  F   UNL     1      55.731   6.602  68.470  0.00  0.00    -0.220 F 
ATOM     11  F   UNL     1      57.207   5.029  68.182  0.00  0.00    -0.220 F 
ATOM     12  F   UNL     1      56.419   5.980  66.504  0.00  0.00    -0.220 F 
ENDBRANCH   8   9
ENDBRANCH   4   6
ENDBRANCH   1   2
TORSDOF 5
