REMARK  Name = GVI
REMARK  3 active torsions:
REMARK  status: ('A' for Active; 'I' for Inactive)
REMARK    1  A    between atoms: C9_6  and  C10_10
REMARK    2  A    between atoms: C9_6  and  N10_16
REMARK    3  A    between atoms: C13_13  and  C16_17
REMARK                            x       y       z     vdW  Elec       q    Type
REMARK                         _______ _______ _______ _____ _____    ______ ____
ROOT
ATOM      1  N   UNL     1       4.838   9.611   5.248  0.00  0.00    -0.222 NA
ATOM      2  C   UNL     1       3.518   9.638   5.255  0.00  0.00    +0.200 A 
ATOM      3  N   UNL     1       2.818   9.715   4.142  0.00  0.00    -0.203 NA
ATOM      4  C   UNL     1       3.417   9.770   2.958  0.00  0.00    +0.185 A 
ATOM      5  C   UNL     1       4.829   9.749   2.894  0.00  0.00    +0.136 A 
ATOM      6  N   UNL     1       5.152   9.820   1.583  0.00  0.00    -0.219 NA
ATOM      7  C   UNL     1       4.076   9.882   0.863  0.00  0.00    +0.200 A 
ATOM      8  N   UNL     1       2.980   9.853   1.666  0.00  0.00    -0.203 NA
ATOM      9  C   UNL     1       5.545   9.675   4.116  0.00  0.00    +0.104 A 
ENDROOT
BRANCH   9  10
ATOM     10  C   UNL     1       7.030   9.623   4.186  0.00  0.00    +0.019 A 
ATOM     11  C   UNL     1       7.655   9.461   5.433  0.00  0.00    +0.001 A 
ATOM     12  C   UNL     1       9.032   9.389   5.528  0.00  0.00    -0.003 A 
ATOM     13  C   UNL     1       9.806   9.475   4.384  0.00  0.00    -0.005 A 
ATOM     17  C   UNL     1       9.207   9.626   3.142  0.00  0.00    -0.003 A 
ATOM     18  C   UNL     1       7.829   9.697   3.040  0.00  0.00    +0.001 A 
BRANCH  13  14
ATOM     14  C   UNL     1      11.301   9.388   4.488  0.00  0.00    +0.115 C 
BRANCH  14  15
ATOM     15  N   UNL     1      11.645   7.969   4.689  0.00  0.00    -0.212 NA
ATOM     16  C   UNL     1      13.053   7.697   4.340  0.00  0.00    +0.108 C 
ENDBRANCH  14  15
ENDBRANCH  13  14
ENDBRANCH   9  10
TORSDOF 3
