REMARK  Name = EAE
REMARK  3 active torsions:
REMARK  status: ('A' for Active; 'I' for Inactive)
REMARK    1  A    between atoms: C2_2  and  N3_9
REMARK    2  A    between atoms: C14_6  and  C15_7
REMARK    3  A    between atoms: C9_15  and  O10_16
REMARK                            x       y       z     vdW  Elec       q    Type
REMARK                         _______ _______ _______ _____ _____    ______ ____
ROOT
ATOM      3  N   UNL     1      11.086  91.422  36.129  0.00  0.00    -0.322 N 
ATOM      4  C   UNL     1      10.833  90.266  36.803  0.00  0.00    +0.069 A 
ATOM      5  C   UNL     1       9.606  90.303  37.445  0.00  0.00    +0.047 A 
ATOM      6  C   UNL     1       9.112  89.227  38.191  0.00  0.00    +0.011 A 
ATOM      7  C   UNL     1       9.897  88.070  38.278  0.00  0.00    +0.037 A 
ATOM      8  C   UNL     1      11.148  88.000  37.637  0.00  0.00    +0.140 A 
ATOM     11  S   UNL     1       8.750  91.801  37.242  0.00  0.00    -0.068 S 
ATOM     12  C   UNL     1      11.612  89.100  36.896  0.00  0.00    +0.055 A 
ATOM     13  C   UNL     1      10.156  92.355  36.326  0.00  0.00    +0.093 A 
ATOM     14  C   UNL     1      10.186  93.633  35.886  0.00  0.00    +0.061 C 
ENDROOT
BRANCH  14  15
ATOM     15  C   UNL     1       9.193  94.727  36.050  0.00  0.00    +0.175 C 
ATOM     16  O   UNL     1       8.095  94.549  36.556  0.00  0.00    -0.291 OA
ATOM     17  C   UNL     1       9.534  96.116  35.569  0.00  0.00    +0.077 C 
ENDBRANCH  14  15
BRANCH   3   2
ATOM      1  C   UNL     1      13.483  92.127  35.965  0.00  0.00    +0.026 C 
ATOM      2  C   UNL     1      12.247  91.559  35.223  0.00  0.00    +0.107 C 
ENDBRANCH   3   2
BRANCH   8   9
ATOM      9  O   UNL     1      11.954  86.849  37.713  0.00  0.00    -0.471 OA
ATOM     10  C   UNL     1      13.307  86.786  37.228  0.00  0.00    +0.253 C 
ENDBRANCH   8   9
TORSDOF 3
