REMARK  Name = 4JLK
REMARK  11 active torsions:
REMARK  status: ('A' for Active; 'I' for Inactive)
REMARK    1  A    between atoms: C_2  and  C_3
REMARK    2  A    between atoms: C_3  and  O_4
REMARK    3  A    between atoms: O_4  and  C_5
REMARK    4  A    between atoms: C_7  and  O_8
REMARK    5  A    between atoms: O_8  and  C_9
REMARK    6  A    between atoms: C_12  and  C_13
REMARK    7  A    between atoms: C_16  and  C_17
REMARK    8  A    between atoms: C_18  and  C_19
REMARK    9  A    between atoms: C_19  and  S_20
REMARK   10  A    between atoms: S_20  and  C_21
REMARK   11  A    between atoms: C_27  and  N_28
REMARK                            x       y       z     vdW  Elec       q    Type
REMARK                         _______ _______ _______ _____ _____    ______ ____
ROOT
ATOM     10  C   UNL     1     -35.346  14.668  -1.636  0.00  0.00    +0.109 A 
ATOM     11  S   UNL     1     -33.701  14.601  -1.285  0.00  0.00    -0.072 S 
ATOM     12  C   UNL     1     -33.279  15.793  -2.392  0.00  0.00    +0.011 A 
ATOM     13  C   UNL     1     -34.452  16.233  -3.036  0.00  0.00    +0.062 A 
ATOM     28  C   UNL     1     -31.852  16.291  -2.654  0.00  0.00    +0.053 C 
ATOM     29  N   UNL     1     -35.546  15.600  -2.577  0.00  0.00    -0.243 NA
ENDROOT
BRANCH  10   9
ATOM      5  C   UNL     1     -38.681  13.538  -0.629  0.00  0.00    +0.163 A 
ATOM      6  C   UNL     1     -38.389  12.527   0.285  0.00  0.00    +0.162 A 
ATOM      7  C   UNL     1     -37.059  12.225   0.554  0.00  0.00    +0.050 A 
ATOM      8  C   UNL     1     -36.024  12.924  -0.073  0.00  0.00    +0.014 A 
ATOM      9  C   UNL     1     -36.330  13.920  -0.994  0.00  0.00    +0.011 A 
ATOM     32  C   UNL     1     -37.656  14.233  -1.258  0.00  0.00    +0.060 A 
BRANCH   6  30
ATOM     30  O   UNL     1     -39.418  11.856   0.880  0.00  0.00    -0.491 OA
ATOM     31  C   UNL     1     -39.098  11.022   2.028  0.00  0.00    +0.277 C 
ENDBRANCH   6  30
BRANCH   5   4
ATOM      4  O   UNL     1     -39.981  13.824  -0.892  0.00  0.00    -0.486 OA
BRANCH   4   3
ATOM      3  C   UNL     1     -40.240  14.753  -1.988  0.00  0.00    +0.262 C 
BRANCH   3   2
ATOM      1  F   UNL     1     -41.967  16.193  -1.107  0.00  0.00    -0.246 F 
ATOM      2  C   UNL     1     -41.746  15.063  -1.904  0.00  0.00    +0.254 C 
ENDBRANCH   3   2
ENDBRANCH   4   3
ENDBRANCH   5   4
ENDBRANCH  10   9
BRANCH  13  14
ATOM     14  C   UNL     1     -34.533  17.298  -4.130  0.00  0.00    +0.133 C 
BRANCH  14  15
ATOM     15  S   UNL     1     -34.242  16.595  -5.812  0.00  0.00    -0.080 S 
BRANCH  15  16
ATOM     16  C   UNL     1     -33.585  17.993  -6.642  0.00  0.00    +0.192 A 
ATOM     17  N   UNL     1     -33.825  18.108  -7.960  0.00  0.00    -0.207 NA
ATOM     18  C   UNL     1     -33.344  19.144  -8.655  0.00  0.00    +0.122 A 
ATOM     19  C   UNL     1     -32.590  20.134  -7.998  0.00  0.00    +0.086 A 
ATOM     20  C   UNL     1     -32.362  19.985  -6.618  0.00  0.00    +0.122 A 
ATOM     24  N   UNL     1     -33.626  19.214  -9.951  0.00  0.00    -0.343 N 
ATOM     25  H   UNL     1     -33.256  20.030 -10.536  0.00  0.00    +0.144 HD
ATOM     26  H   UNL     1     -34.223  18.454 -10.410  0.00  0.00    +0.144 HD
ATOM     27  N   UNL     1     -32.860  18.916  -5.975  0.00  0.00    -0.207 NA
BRANCH  20  21
ATOM     21  N   UNL     1     -31.655  20.881  -5.934  0.00  0.00    -0.343 N 
ATOM     22  H   UNL     1     -31.252  21.738  -6.432  0.00  0.00    +0.144 HD
ATOM     23  H   UNL     1     -31.490  20.745  -4.886  0.00  0.00    +0.144 HD
ENDBRANCH  20  21
ENDBRANCH  15  16
ENDBRANCH  14  15
ENDBRANCH  13  14
TORSDOF 9
