REMARK  Name = 5NK0
REMARK  22 active torsions:
REMARK  status: ('A' for Active; 'I' for Inactive)
REMARK    1  A    between atoms: C_1  and  C_2
REMARK    2  A    between atoms: C_8  and  N_9
REMARK    3  A    between atoms: C_10  and  C_12
REMARK    4  A    between atoms: N_17  and  C_18
REMARK    5  A    between atoms: C_23  and  C_24
REMARK    6  A    between atoms: N_26  and  C_27
REMARK    7  A    between atoms: C_27  and  C_28
REMARK    8  A    between atoms: C_28  and  C_29
REMARK    9  A    between atoms: C_28  and  C_30
REMARK   10  A    between atoms: C_28  and  C_31
REMARK   11  A    between atoms: C_31  and  N_32
REMARK   12  A    between atoms: C_33  and  C_34
REMARK   13  A    between atoms: C_40  and  N_41
REMARK   14  A    between atoms: C_42  and  C_44
REMARK   15  A    between atoms: N_49  and  C_50
REMARK   16  A    between atoms: C_55  and  C_56
REMARK   17  A    between atoms: N_58  and  C_59
REMARK   18  A    between atoms: C_59  and  C_60
REMARK   19  A    between atoms: C_60  and  C_61
REMARK   20  A    between atoms: C_60  and  C_62
REMARK   21  A    between atoms: C_60  and  C_63
REMARK   22  A    between atoms: C_63  and  N_64
REMARK                            x       y       z     vdW  Elec       q    Type
REMARK                         _______ _______ _______ _____ _____    ______ ____
ROOT
ATOM      7  C   UNL     1     126.289  15.425  47.156  0.00  0.00    +0.095 A 
ATOM      8  C   UNL     1     126.830  14.994  45.999  0.00  0.00    +0.133 A 
ATOM      9  N   UNL     1     125.935  14.502  45.096  0.00  0.00    -0.232 NA
ATOM     10  C   UNL     1     124.650  14.509  45.512  0.00  0.00    +0.163 A 
ATOM     11  N   UNL     1     123.631  14.056  44.749  0.00  0.00    -0.294 N 
ATOM     12  H   UNL     1     123.880  13.736  43.759  0.00  0.00    +0.154 HD
ATOM     31  S   UNL     1     124.641  15.171  47.082  0.00  0.00    -0.048 S 
ENDROOT
BRANCH  11  13
ATOM     13  C   UNL     1     122.325  13.965  45.107  0.00  0.00    +0.034 A 
ATOM     14  C   UNL     1     121.855  13.992  46.417  0.00  0.00    +0.023 A 
ATOM     15  C   UNL     1     120.496  13.885  46.701  0.00  0.00    +0.003 A 
ATOM     16  C   UNL     1     119.587  13.730  45.667  0.00  0.00    +0.013 A 
ATOM     17  C   UNL     1     120.027  13.695  44.355  0.00  0.00    +0.038 A 
ATOM     30  C   UNL     1     121.390  13.805  44.081  0.00  0.00    +0.036 A 
BRANCH  17  18
ATOM     18  C   UNL     1     119.101  13.522  43.326  0.00  0.00    +0.244 C 
ATOM     19  N   UNL     1     118.208  12.540  43.550  0.00  0.00    -0.311 N 
ATOM     20  H   UNL     1     118.255  12.008  44.477  0.00  0.00    +0.149 HD
ATOM     29  O   UNL     1     119.136  14.195  42.296  0.00  0.00    -0.270 OA
BRANCH  19  21
ATOM     21  C   UNL     1     117.169  12.165  42.576  0.00  0.00    +0.112 C 
BRANCH  21  22
ATOM     22  C   UNL     1     115.775  12.609  43.036  0.00  0.00    -0.007 C 
ATOM     27  C   UNL     1     114.841  11.393  43.072  0.00  0.00    +0.014 C 
ATOM     28  C   UNL     1     115.845  13.230  44.436  0.00  0.00    +0.014 C 
BRANCH  22  23
ATOM     23  C   UNL     1     115.226  13.636  42.040  0.00  0.00    +0.085 C 
BRANCH  23  24
ATOM     24  N   UNL     1     116.153  14.764  41.867  0.00  0.00    -0.329 NA
ATOM     25  H   UNL     1     116.303  15.251  42.808  0.00  0.00    +0.118 HD
ATOM     26  H   UNL     1     117.091  14.403  41.499  0.00  0.00    +0.118 HD
ENDBRANCH  23  24
ENDBRANCH  22  23
ENDBRANCH  21  22
ENDBRANCH  19  21
ENDBRANCH  17  18
ENDBRANCH  11  13
BRANCH   7   6
ATOM      4  N   UNL     1     128.196  16.321  48.170  0.00  0.00    -0.280 N 
ATOM      5  H   UNL     1     128.730  16.243  47.246  0.00  0.00    +0.155 HD
ATOM      6  C   UNL     1     126.900  15.944  48.251  0.00  0.00    +0.257 C 
ATOM     32  O   UNL     1     126.262  16.033  49.298  0.00  0.00    -0.269 OA
BRANCH   4   3
ATOM      1  C   UNL     1     128.846  19.052  48.358  0.00  0.00    +0.045 C 
ATOM      2  C   UNL     1     129.145  18.150  49.379  0.00  0.00    -0.028 A 
ATOM      3  C   UNL     1     128.808  16.801  49.283  0.00  0.00    +0.055 A 
ATOM     33  C   UNL     1     129.128  15.923  50.320  0.00  0.00    +0.062 A 
ATOM     34 CL   UNL     1     128.742  14.229  50.228  0.00  0.00    -0.082 Cl
ATOM     35  C   UNL     1     129.765  16.408  51.462  0.00  0.00    +0.022 A 
ATOM     36  C   UNL     1     130.100  17.756  51.568  0.00  0.00    +0.002 A 
ATOM     37  C   UNL     1     129.789  18.623  50.523  0.00  0.00    +0.005 A 
ENDBRANCH   4   3
ENDBRANCH   7   6
TORSDOF 8
