REMARK  Name = 5TA6
REMARK  10 active torsions:
REMARK  status: ('A' for Active; 'I' for Inactive)
REMARK    1  A    between atoms: C_1  and  N_16
REMARK    2  A    between atoms: C_7  and  N_19
REMARK    3  A    between atoms: C_9  and  O_23
REMARK    4  A    between atoms: C_10  and  O_23
REMARK    5  A    between atoms: C_11  and  N_26
REMARK    6  A    between atoms: C_13  and  C_14
REMARK    7  A    between atoms: C_14  and  C_15
REMARK    8  A    between atoms: C_21  and  C_24
REMARK    9  A    between atoms: N_28  and  C_29
REMARK   10  A    between atoms: C_38  and  C_39
REMARK                            x       y       z     vdW  Elec       q    Type
REMARK                         _______ _______ _______ _____ _____    ______ ____
ROOT
ATOM      2  N   UNL     1      10.243  45.114  10.918  0.00  0.00    -0.305 N 
ATOM      3  C   UNL     1      10.537  44.393   9.779  0.00  0.00    +0.148 A 
ATOM      4  C   UNL     1       9.925  43.152   9.520  0.00  0.00    +0.091 A 
ATOM      5  N   UNL     1       8.947  42.689  10.402  0.00  0.00    -0.291 N 
ATOM      6  C   UNL     1       8.723  43.324  11.594  0.00  0.00    +0.136 C 
ATOM      7  C   UNL     1       7.706  42.672  12.170  0.00  0.00    +0.142 C 
ATOM     10  N   UNL     1       7.283  41.672  11.340  0.00  0.00    -0.256 NA
ATOM     11  C   UNL     1       8.027  41.707  10.271  0.00  0.00    +0.251 C 
ATOM     12  C   UNL     1      10.230  42.458   8.378  0.00  0.00    +0.141 A 
ATOM     13  N   UNL     1      11.125  42.977   7.556  0.00  0.00    -0.221 NA
ATOM     14  C   UNL     1      11.709  44.140   7.807  0.00  0.00    +0.221 A 
ATOM     15  N   UNL     1      12.640  44.573   6.863  0.00  0.00    -0.281 N 
ATOM     16  H   UNL     1      12.786  43.920   6.028  0.00  0.00    +0.155 HD
ATOM     36  N   UNL     1      11.426  44.838   8.895  0.00  0.00    -0.197 NA
ATOM     37  C   UNL     1       9.546  44.489  12.071  0.00  0.00    +0.108 C 
ENDROOT
BRANCH  15  17
ATOM     17  C   UNL     1      13.415  45.748   6.854  0.00  0.00    +0.076 A 
ATOM     18  C   UNL     1      13.175  46.844   7.676  0.00  0.00    +0.028 A 
ATOM     19  C   UNL     1      13.996  47.953   7.583  0.00  0.00    +0.015 A 
ATOM     20  C   UNL     1      15.079  47.999   6.680  0.00  0.00    +0.040 A 
ATOM     32  C   UNL     1      15.310  46.895   5.840  0.00  0.00    +0.060 A 
ATOM     33  C   UNL     1      14.480  45.779   5.939  0.00  0.00    +0.142 A 
BRANCH  20  21
ATOM     21  C   UNL     1      15.948  49.204   6.596  0.00  0.00    +0.244 C 
ATOM     22  N   UNL     1      16.185  49.992   7.677  0.00  0.00    -0.308 N 
ATOM     23  H   UNL     1      15.737  49.706   8.606  0.00  0.00    +0.149 HD
ATOM     31  O   UNL     1      16.444  49.477   5.527  0.00  0.00    -0.270 OA
BRANCH  22  24
ATOM     24  C   UNL     1      17.013  51.212   7.666  0.00  0.00    +0.076 C 
ATOM     25  C   UNL     1      18.227  51.082   8.595  0.00  0.00    +0.037 C 
ATOM     26  C   UNL     1      18.998  52.419   8.669  0.00  0.00    +0.086 C 
ATOM     27  N   UNL     1      18.137  53.560   9.046  0.00  0.00    -0.305 NA
ATOM     28  C   UNL     1      18.895  54.821   9.008  0.00  0.00    +0.105 C 
ATOM     29  C   UNL     1      16.939  53.689   8.199  0.00  0.00    +0.086 C 
ATOM     30  C   UNL     1      16.152  52.371   8.179  0.00  0.00    +0.037 C 
ENDBRANCH  22  24
ENDBRANCH  20  21
BRANCH  33  34
ATOM     34  O   UNL     1      14.646  44.664   5.165  0.00  0.00    -0.493 OA
ATOM     35  C   UNL     1      15.855  44.442   4.429  0.00  0.00    +0.277 C 
ENDBRANCH  33  34
ENDBRANCH  15  17
BRANCH   2   1
ATOM      1  C   UNL     1      10.761  46.505  10.978  0.00  0.00    +0.075 C 
ATOM     40  C   UNL     1      12.179  46.582  11.599  0.00  0.00    +0.022 C 
ATOM     41  C   UNL     1      12.258  47.956  12.297  0.00  0.00    +0.002 C 
ATOM     42  C   UNL     1      10.917  48.658  12.011  0.00  0.00    +0.002 C 
ATOM     43  C   UNL     1       9.913  47.491  11.840  0.00  0.00    +0.022 C 
ENDBRANCH   2   1
BRANCH   7   8
ATOM      8  C   UNL     1       7.174  43.001  13.445  0.00  0.00    +0.117 C 
ATOM      9  N   UNL     1       6.734  43.242  14.451  0.00  0.00    -0.190 NA
ENDBRANCH   7   8
BRANCH  37  38
ATOM     38  C   UNL     1      10.495  44.007  13.194  0.00  0.00    +0.021 C 
ATOM     39  C   UNL     1      11.468  42.905  12.757  0.00  0.00    +0.005 C 
ENDBRANCH  37  38
TORSDOF 7
