REMARK  Name = 6ON
REMARK  30 active torsions:
REMARK  status: ('A' for Active; 'I' for Inactive)
REMARK    1  A    between atoms: C10_1  and  O09_10
REMARK    2  A    between atoms: C10_1  and  C11_11
REMARK    3  A    between atoms: C02_3  and  C54_54
REMARK    4  A    between atoms: N03_4  and  C04_5
REMARK    5  A    between atoms: C04_5  and  C05_6
REMARK    6  A    between atoms: C05_6  and  O06_7
REMARK    7  A    between atoms: O06_7  and  C07_8
REMARK    8  A    between atoms: C07_8  and  C08_9
REMARK    9  A    between atoms: C08_9  and  O09_10
REMARK   10  A    between atoms: C11_11  and  O12_12
REMARK   11  A    between atoms: O12_12  and  C13_13
REMARK   12  A    between atoms: C13_13  and  C14_14
REMARK   13  A    between atoms: C14_14  and  O15_15
REMARK   14  A    between atoms: O15_15  and  C16_16
REMARK   15  A    between atoms: C16_16  and  C17_17
REMARK   16  A    between atoms: C17_17  and  O18_18
REMARK   17  A    between atoms: O18_18  and  C19_19
REMARK   18  A    between atoms: C19_19  and  C20_20
REMARK   19  A    between atoms: C20_20  and  O21_21
REMARK   20  A    between atoms: O21_21  and  C22_22
REMARK   21  A    between atoms: C22_22  and  C23_23
REMARK   22  A    between atoms: C23_23  and  O24_24
REMARK   23  A    between atoms: O24_24  and  C25_25
REMARK   24  A    between atoms: C25_25  and  C26_26
REMARK   25  A    between atoms: C26_26  and  N27_27
REMARK   26  A    between atoms: C28_28  and  C29_29
REMARK   27  A    between atoms: C29_29  and  C30_30
REMARK   28  A    between atoms: C38_38  and  C39_39
REMARK   29  A    between atoms: C54_54  and  C55_55
REMARK   30  A    between atoms: C63_63  and  C64_64
REMARK                            x       y       z     vdW  Elec       q    Type
REMARK                         _______ _______ _______ _____ _____    ______ ____
ROOT
ATOM      6  O   UNL     1     -22.233  -4.138 -30.837  0.00  0.00    -0.348 OA
ENDROOT
BRANCH   6   5
ATOM      5  C   UNL     1     -22.520  -5.490 -31.196  0.00  0.00    +0.174 C 
BRANCH   5   4
ATOM      4  C   UNL     1     -24.031  -5.688 -31.307  0.00  0.00    +0.174 C 
BRANCH   4   3
ATOM      3  O   UNL     1     -24.540  -4.995 -32.449  0.00  0.00    -0.348 OA
BRANCH   3   2
ATOM      2  C   UNL     1     -25.968  -4.946 -32.466  0.00  0.00    +0.174 C 
BRANCH   2   1
ATOM      1  C   UNL     1     -26.461  -4.437 -33.821  0.00  0.00    +0.174 C 
BRANCH   1  45
ATOM     45  O   UNL     1     -25.922  -3.142 -34.107  0.00  0.00    -0.348 OA
BRANCH  45  46
ATOM     46  C   UNL     1     -26.065  -2.776 -35.484  0.00  0.00    +0.174 C 
BRANCH  46  47
ATOM     47  C   UNL     1     -26.225  -1.263 -35.619  0.00  0.00    +0.174 C 
BRANCH  47  48
ATOM     48  O   UNL     1     -25.475  -0.601 -34.596  0.00  0.00    -0.349 OA
BRANCH  48  49
ATOM     49  C   UNL     1     -24.177  -0.169 -35.001  0.00  0.00    +0.166 C 
BRANCH  49  50
ATOM     50  C   UNL     1     -24.207   1.331 -35.243  0.00  0.00    +0.147 C 
BRANCH  50  51
ATOM     51  N   UNL     1     -24.820   2.047 -34.142  0.00  0.00    -0.203 NA
ATOM     52  C   UNL     1     -24.108   2.540 -33.137  0.00  0.00    +0.244 C 
ATOM     77  O   UNL     1     -22.899   2.365 -33.030  0.00  0.00    -0.273 OA
BRANCH  52  53
ATOM     53  C   UNL     1     -24.864   3.374 -32.122  0.00  0.00    +0.119 C 
BRANCH  53  54
ATOM     54  C   UNL     1     -24.062   3.368 -30.826  0.00  0.00    +0.171 C 
ATOM     55  C   UNL     1     -24.663   4.249 -29.804  0.00  0.00    +0.170 A 
ATOM     56  N   UNL     1     -24.195   4.471 -28.564  0.00  0.00    -0.274 N 
ATOM     57  C   UNL     1     -24.953   5.317 -27.872  0.00  0.00    +0.148 A 
ATOM     58  C   UNL     1     -24.750   5.816 -26.474  0.00  0.00    +0.074 C 
ATOM     59  N   UNL     1     -25.980   5.648 -28.687  0.00  0.00    -0.133 NA
ATOM     60  C   UNL     1     -23.031   3.904 -28.143  0.00  0.00    +0.097 A 
ATOM     61  S   UNL     1     -21.781   4.666 -27.211  0.00  0.00    -0.074 S 
ATOM     62  C   UNL     1     -20.688   3.314 -27.245  0.00  0.00    +0.005 A 
ATOM     63  C   UNL     1     -19.368   3.460 -26.519  0.00  0.00    +0.038 C 
ATOM     64  C   UNL     1     -21.280   2.198 -28.032  0.00  0.00    -0.017 A 
ATOM     65  C   UNL     1     -20.538   0.907 -28.243  0.00  0.00    +0.031 C 
ATOM     66  C   UNL     1     -22.551   2.559 -28.557  0.00  0.00    +0.036 A 
ATOM     67  C   UNL     1     -23.431   1.649 -29.322  0.00  0.00    +0.078 C 
ATOM     75  N   UNL     1     -25.802   4.980 -29.914  0.00  0.00    -0.131 NA
ATOM     76  N   UNL     1     -24.156   2.026 -30.286  0.00  0.00    -0.264 NA
BRANCH  67  68
ATOM     68  C   UNL     1     -23.671   0.283 -28.783  0.00  0.00    +0.017 A 
ATOM     69  C   UNL     1     -23.656   0.103 -27.399  0.00  0.00    +0.002 A 
ATOM     70  C   UNL     1     -23.920  -1.153 -26.861  0.00  0.00    +0.011 A 
ATOM     71  C   UNL     1     -24.236  -2.188 -27.716  0.00  0.00    +0.058 A 
ATOM     72 CL   UNL     1     -24.623  -3.770 -27.031  0.00  0.00    -0.082 Cl
ATOM     73  C   UNL     1     -24.275  -2.017 -29.087  0.00  0.00    +0.011 A 
ATOM     74  C   UNL     1     -24.005  -0.767 -29.631  0.00  0.00    +0.002 A 
ENDBRANCH  67  68
ENDBRANCH  53  54
ENDBRANCH  52  53
ENDBRANCH  50  51
ENDBRANCH  49  50
ENDBRANCH  48  49
ENDBRANCH  47  48
ENDBRANCH  46  47
ENDBRANCH  45  46
ENDBRANCH   1  45
ENDBRANCH   2   1
ENDBRANCH   3   2
ENDBRANCH   4   3
ENDBRANCH   5   4
ENDBRANCH   6   5
BRANCH   6   7
ATOM      7  C   UNL     1     -20.934  -3.663 -31.201  0.00  0.00    +0.174 C 
BRANCH   7   8
ATOM      8  C   UNL     1     -21.023  -2.227 -31.721  0.00  0.00    +0.174 C 
BRANCH   8   9
ATOM      9  O   UNL     1     -19.746  -1.779 -32.184  0.00  0.00    -0.348 OA
BRANCH   9  10
ATOM     10  C   UNL     1     -19.026  -1.090 -31.163  0.00  0.00    +0.174 C 
BRANCH  10  11
ATOM     11  C   UNL     1     -17.553  -0.925 -31.539  0.00  0.00    +0.174 C 
BRANCH  11  12
ATOM     12  O   UNL     1     -16.692  -1.208 -30.427  0.00  0.00    -0.348 OA
BRANCH  12  13
ATOM     13  C   UNL     1     -16.896  -0.397 -29.261  0.00  0.00    +0.174 C 
BRANCH  13  14
ATOM     14  C   UNL     1     -17.487  -1.236 -28.126  0.00  0.00    +0.174 C 
BRANCH  14  15
ATOM     15  O   UNL     1     -17.315  -2.629 -28.407  0.00  0.00    -0.349 OA
BRANCH  15  16
ATOM     16  C   UNL     1     -18.489  -3.426 -28.185  0.00  0.00    +0.166 C 
BRANCH  16  17
ATOM     17  C   UNL     1     -18.355  -4.784 -28.885  0.00  0.00    +0.147 C 
BRANCH  17  18
ATOM     18  N   UNL     1     -17.497  -5.682 -28.136  0.00  0.00    -0.203 NA
ATOM     19  C   UNL     1     -17.871  -6.173 -26.974  0.00  0.00    +0.244 C 
ATOM     44  O   UNL     1     -18.961  -5.912 -26.488  0.00  0.00    -0.273 OA
BRANCH  19  20
ATOM     20  C   UNL     1     -16.850  -7.047 -26.272  0.00  0.00    +0.119 C 
BRANCH  20  21
ATOM     21  C   UNL     1     -17.094  -6.981 -24.769  0.00  0.00    +0.171 C 
ATOM     22  C   UNL     1     -16.210  -7.894 -24.033  0.00  0.00    +0.170 A 
ATOM     23  N   UNL     1     -16.231  -8.129 -22.724  0.00  0.00    -0.274 N 
ATOM     24  C   UNL     1     -17.169  -7.553 -21.940  0.00  0.00    +0.097 A 
ATOM     25  S   UNL     1     -18.044  -8.301 -20.648  0.00  0.00    -0.074 S 
ATOM     26  C   UNL     1     -19.022  -6.924 -20.293  0.00  0.00    +0.005 A 
ATOM     27  C   UNL     1     -20.013  -7.058 -19.174  0.00  0.00    +0.038 C 
ATOM     28  C   UNL     1     -18.695  -5.810 -21.204  0.00  0.00    -0.017 A 
ATOM     29  C   UNL     1     -19.447  -4.514 -21.105  0.00  0.00    +0.031 C 
ATOM     30  C   UNL     1     -17.679  -6.181 -22.136  0.00  0.00    +0.036 A 
ATOM     31  C   UNL     1     -17.098  -5.263 -23.154  0.00  0.00    +0.078 C 
ATOM     39  C   UNL     1     -15.304  -8.999 -22.332  0.00  0.00    +0.148 A 
ATOM     40  C   UNL     1     -15.024  -9.517 -20.959  0.00  0.00    +0.074 C 
ATOM     41  N   UNL     1     -14.626  -9.321 -23.459  0.00  0.00    -0.133 NA
ATOM     42  N   UNL     1     -15.194  -8.620 -24.542  0.00  0.00    -0.131 NA
ATOM     43  N   UNL     1     -16.788  -5.616 -24.335  0.00  0.00    -0.264 NA
BRANCH  31  32
ATOM     32  C   UNL     1     -16.817  -3.873 -22.691  0.00  0.00    +0.017 A 
ATOM     33  C   UNL     1     -16.349  -3.630 -21.397  0.00  0.00    +0.002 A 
ATOM     34  C   UNL     1     -16.095  -2.323 -21.007  0.00  0.00    +0.011 A 
ATOM     35  C   UNL     1     -16.312  -1.300 -21.914  0.00  0.00    +0.058 A 
ATOM     36 CL   UNL     1     -15.995   0.372 -21.425  0.00  0.00    -0.082 Cl
ATOM     37  C   UNL     1     -16.775  -1.535 -23.195  0.00  0.00    +0.011 A 
ATOM     38  C   UNL     1     -17.041  -2.834 -23.584  0.00  0.00    +0.002 A 
ENDBRANCH  31  32
ENDBRANCH  20  21
ENDBRANCH  19  20
ENDBRANCH  17  18
ENDBRANCH  16  17
ENDBRANCH  15  16
ENDBRANCH  14  15
ENDBRANCH  13  14
ENDBRANCH  12  13
ENDBRANCH  11  12
ENDBRANCH  10  11
ENDBRANCH   9  10
ENDBRANCH   8   9
ENDBRANCH   7   8
ENDBRANCH   6   7
TORSDOF 30
