REMARK  Name = 3RM6
REMARK  9 active torsions:
REMARK  status: ('A' for Active; 'I' for Inactive)
REMARK    1  A    between atoms: N_2  and  C_14
REMARK    2  A    between atoms: N_2  and  C_22
REMARK    3  A    between atoms: N_3  and  C_12
REMARK    4  A    between atoms: N_3  and  C_17
REMARK    5  A    between atoms: N_7  and  C_23
REMARK    6  A    between atoms: N_9  and  C_15
REMARK    7  A    between atoms: C_11  and  C_16
REMARK    8  A    between atoms: C_17  and  C_18
REMARK    9  A    between atoms: C_22  and  C_23
REMARK                            x       y       z     vdW  Elec       q    Type
REMARK                         _______ _______ _______ _____ _____    ______ ____
ROOT
ATOM      6  C   UNL     1      94.024  45.932 -86.183  0.00  0.00    +0.059 A 
ATOM      7  C   UNL     1      93.036  45.918 -85.137  0.00  0.00    +0.042 A 
ATOM      8  C   UNL     1      93.419  45.418 -83.833  0.00  0.00    +0.049 A 
ATOM      9  C   UNL     1      94.741  44.940 -83.569  0.00  0.00    +0.059 A 
ATOM     10  C   UNL     1      95.720  44.948 -84.619  0.00  0.00    +0.148 A 
ATOM     37  C   UNL     1      95.349  45.446 -85.909  0.00  0.00    +0.049 A 
ENDROOT
BRANCH   6   4
ATOM      1  N   UNL     1      94.443  45.945 -88.531  0.00  0.00    -0.325 N 
ATOM      2  H   UNL     1      94.219  46.310 -89.511  0.00  0.00    +0.145 HD
ATOM      3  H   UNL     1      95.220  45.222 -88.394  0.00  0.00    +0.145 HD
ATOM      4  C   UNL     1      93.736  46.403 -87.452  0.00  0.00    +0.243 C 
ATOM      5  O   UNL     1      92.859  47.240 -87.631  0.00  0.00    -0.270 OA
ENDBRANCH   6   4
BRANCH  10  11
ATOM     11  N   UNL     1      96.925  44.518 -84.418  0.00  0.00    +0.058 N 
ATOM     12  O   UNL     1      97.179  43.616 -83.492  0.00  0.00    -0.126 OA
ATOM     13  O   UNL     1      97.927  44.953 -85.152  0.00  0.00    -0.126 OA
ENDBRANCH  10  11
BRANCH   9  14
ATOM     14  N   UNL     1      95.058  44.507 -82.391  0.00  0.00    -0.341 N 
ATOM     15  H   UNL     1      95.909  44.929 -81.898  0.00  0.00    +0.146 HD
BRANCH  14  16
ATOM     16  C   UNL     1      94.284  43.447 -81.699  0.00  0.00    +0.117 C 
BRANCH  16  17
ATOM     17  C   UNL     1      95.159  42.817 -80.606  0.00  0.00    +0.103 C 
BRANCH  17  18
ATOM     18  N   UNL     1      94.867  41.408 -80.485  0.00  0.00    -0.298 NA
ATOM     19  C   UNL     1      95.362  40.361 -81.385  0.00  0.00    +0.099 C 
ATOM     20  C   UNL     1      96.126  39.293 -80.589  0.00  0.00    +0.096 C 
ATOM     21  N   UNL     1      95.229  38.689 -79.618  0.00  0.00    -0.314 NA
ATOM     22  H   UNL     1      94.385  38.268 -80.124  0.00  0.00    +0.122 HD
ATOM     23  C   UNL     1      94.776  39.707 -78.683  0.00  0.00    +0.096 C 
ATOM     24  C   UNL     1      94.017  40.814 -79.447  0.00  0.00    +0.099 C 
ENDBRANCH  17  18
ENDBRANCH  16  17
ENDBRANCH  14  16
ENDBRANCH   9  14
BRANCH   7  25
ATOM     25  N   UNL     1      91.822  46.360 -85.384  0.00  0.00    -0.339 N 
ATOM     26  H   UNL     1      91.698  47.013 -86.223  0.00  0.00    +0.146 HD
BRANCH  25  27
ATOM     27  C   UNL     1      90.598  46.025 -84.588  0.00  0.00    +0.140 C 
BRANCH  27  28
ATOM     28  C   UNL     1      90.471  46.973 -83.421  0.00  0.00    +0.006 A 
ATOM     29  C   UNL     1      90.465  48.362 -83.572  0.00  0.00    +0.121 A 
ATOM     30  N   UNL     1      90.365  49.244 -82.529  0.00  0.00    -0.223 NA
ATOM     31  C   UNL     1      90.271  48.691 -81.285  0.00  0.00    +0.212 A 
ATOM     32  N   UNL     1      90.179  49.484 -80.296  0.00  0.00    -0.328 N 
ATOM     33  H   UNL     1      90.179  50.542 -80.457  0.00  0.00    +0.145 HD
ATOM     34  H   UNL     1      90.101  49.094 -79.303  0.00  0.00    +0.145 HD
ATOM     35  N   UNL     1      90.265  47.355 -81.016  0.00  0.00    -0.223 NA
ATOM     36  C   UNL     1      90.368  46.522 -82.100  0.00  0.00    +0.121 A 
ENDBRANCH  27  28
ENDBRANCH  25  27
ENDBRANCH   7  25
TORSDOF 9
