REMARK  Name = 1pxl_ligand
REMARK  5 active torsions:
REMARK  status: ('A' for Active; 'I' for Inactive)
REMARK    1  A    between atoms: C7B_2  and  C4B_5
REMARK    2  A    between atoms: C1B_10  and  N7_11
REMARK    3  A    between atoms: C4_17  and  C5A_18
REMARK    4  A    between atoms: C1A_20  and  C6A_21
REMARK    5  A    between atoms: C3A_23  and  C7A_24
REMARK                            x       y       z     vdW  Elec       q    Type
REMARK                         _______ _______ _______ _____ _____    ______ ____
ROOT
ATOM      7  N   UNL     1       9.805  46.881  24.140  0.00  0.00    -0.222 N 
ATOM      8  H   UNL     1       9.212  47.559  23.641  0.00  0.00    +0.232 HD
ATOM      9  C   UNL     1      10.918  46.520  23.280  0.00  0.00    +0.208 A 
ATOM     10  N   UNL     1      11.862  45.644  23.660  0.00  0.00    -0.260 NA
ATOM     11  C   UNL     1      12.953  45.271  22.857  0.00  0.00    +0.045 A 
ATOM     19  C   UNL     1      13.055  45.881  21.546  0.00  0.00    +0.035 A 
ATOM     20  C   UNL     1      12.009  46.793  21.242  0.00  0.00    +0.091 A 
ATOM     21  N   UNL     1      10.968  47.099  22.093  0.00  0.00    -0.261 NA
ENDROOT
BRANCH  11  12
ATOM     12  C   UNL     1      13.862  44.309  23.428  0.00  0.00    +0.068 A 
ATOM     13  C   UNL     1      15.056  43.645  23.036  0.00  0.00    +0.015 A 
ATOM     14  N   UNL     1      15.595  42.759  23.994  0.00  0.00    -0.296 NA
ATOM     15  C   UNL     1      14.803  42.754  25.098  0.00  0.00    +0.097 A 
ATOM     16  C   UNL     1      14.989  41.964  26.362  0.00  0.00    +0.164 C 
ATOM     17  C   UNL     1      15.807  43.799  21.686  0.00  0.00    +0.102 C 
ATOM     18  S   UNL     1      13.440  43.741  25.086  0.00  0.00    -0.001 S 
ENDBRANCH  11  12
BRANCH   7   6
ATOM      3  C   UNL     1       8.071  46.183  28.118  0.00  0.00    +0.029 A 
ATOM      4  C   UNL     1       9.276  45.486  27.678  0.00  0.00    +0.042 A 
ATOM      5  C   UNL     1       9.819  45.711  26.393  0.00  0.00    +0.061 A 
ATOM      6  C   UNL     1       9.210  46.629  25.476  0.00  0.00    +0.102 A 
ATOM     22  C   UNL     1       7.963  47.344  25.904  0.00  0.00    +0.061 A 
ATOM     23  C   UNL     1       7.415  47.113  27.214  0.00  0.00    +0.042 A 
BRANCH   3   2
ATOM      1  F   UNL     1       8.586  45.870  30.482  0.00  0.00    -0.237 F 
ATOM      2  C   UNL     1       7.492  45.938  29.594  0.00  0.00    +0.358 C 
ATOM     24  F   UNL     1       6.778  44.736  29.622  0.00  0.00    -0.237 F 
ATOM     25  F   UNL     1       6.652  47.009  29.980  0.00  0.00    -0.237 F 
ENDBRANCH   3   2
ENDBRANCH   7   6
TORSDOF 3
