REMARK  Name = I6P
REMARK  12 active torsions:
REMARK  status: ('A' for Active; 'I' for Inactive)
REMARK    1  A    between atoms: P4_2  and  O14_5
REMARK    2  A    between atoms: O14_5  and  C4_6
REMARK    3  A    between atoms: C3_7  and  O13_8
REMARK    4  A    between atoms: O13_8  and  P3_9
REMARK    5  A    between atoms: C5_13  and  O15_14
REMARK    6  A    between atoms: O15_14  and  P5_15
REMARK    7  A    between atoms: C6_19  and  O16_20
REMARK    8  A    between atoms: O16_20  and  P6_21
REMARK    9  A    between atoms: C1_25  and  O11_26
REMARK   10  A    between atoms: O11_26  and  P1_27
REMARK   11  A    between atoms: C2_31  and  O12_32
REMARK   12  A    between atoms: O12_32  and  P2_33
REMARK                            x       y       z     vdW  Elec       q    Type
REMARK                         _______ _______ _______ _____ _____    ______ ____
ROOT
ATOM      6  C   UNL     1       9.975 137.808 332.572  0.00  0.00    +0.186 C 
ATOM      7  C   UNL     1       9.888 136.795 333.703  0.00  0.00    +0.186 C 
ATOM     13  C   UNL     1       8.712 135.840 333.500  0.00  0.00    +0.186 C 
ATOM     19  C   UNL     1       7.459 136.573 332.996  0.00  0.00    +0.186 C 
ATOM     20  C   UNL     1       7.518 138.137 332.866  0.00  0.00    +0.186 C 
ATOM     31  C   UNL     1       8.898 138.831 332.816  0.00  0.00    +0.186 C 
ENDROOT
BRANCH   6   5
ATOM      5  O   UNL     1      11.238 138.367 332.243  0.00  0.00    -0.268 OA
BRANCH   5   2
ATOM      1  O   UNL     1      11.916 140.677 332.061  0.00  0.00    -0.222 OA
ATOM      2  P   UNL     1      12.156 139.482 332.873  0.00  0.00    +0.533 P 
ATOM      3  O   UNL     1      11.807 139.639 334.282  0.00  0.00    -0.115 OA
ATOM      4  O   UNL     1      13.432 138.813 332.557  0.00  0.00    -0.115 OA
ENDBRANCH   5   2
ENDBRANCH   6   5
BRANCH   7   8
ATOM      8  O   UNL     1      11.111 136.178 334.083  0.00  0.00    -0.268 OA
BRANCH   8   9
ATOM      9  P   UNL     1      12.161 135.285 333.319  0.00  0.00    +0.533 P 
ATOM     10  O   UNL     1      12.071 134.012 334.036  0.00  0.00    -0.115 OA
ATOM     11  O   UNL     1      13.376 136.062 333.640  0.00  0.00    -0.115 OA
ATOM     12  O   UNL     1      11.780 135.190 331.913  0.00  0.00    -0.222 OA
ENDBRANCH   8   9
ENDBRANCH   7   8
BRANCH  13  14
ATOM     14  O   UNL     1       8.343 135.272 334.754  0.00  0.00    -0.268 OA
BRANCH  14  15
ATOM     15  P   UNL     1       8.465 133.788 335.320  0.00  0.00    +0.533 P 
ATOM     16  O   UNL     1       7.754 133.885 336.617  0.00  0.00    -0.115 OA
ATOM     17  O   UNL     1       9.918 133.574 335.505  0.00  0.00    -0.115 OA
ATOM     18  O   UNL     1       7.785 132.891 334.360  0.00  0.00    -0.222 OA
ENDBRANCH  14  15
ENDBRANCH  13  14
BRANCH  20  21
ATOM     21  O   UNL     1       6.689 138.747 331.860  0.00  0.00    -0.268 OA
BRANCH  21  22
ATOM     22  P   UNL     1       5.841 138.117 330.630  0.00  0.00    +0.533 P 
ATOM     23  O   UNL     1       4.825 137.254 331.314  0.00  0.00    -0.115 OA
ATOM     24  O   UNL     1       5.253 139.326 329.967  0.00  0.00    -0.115 OA
ATOM     25  O   UNL     1       6.837 137.425 329.750  0.00  0.00    -0.222 OA
ENDBRANCH  21  22
ENDBRANCH  20  21
BRANCH  19  26
ATOM     26  O   UNL     1       7.083 135.910 331.795  0.00  0.00    -0.268 OA
BRANCH  26  27
ATOM     27  P   UNL     1       5.957 134.758 331.797  0.00  0.00    +0.533 P 
ATOM     28  O   UNL     1       5.007 135.238 332.869  0.00  0.00    -0.115 OA
ATOM     29  O   UNL     1       6.668 133.493 332.153  0.00  0.00    -0.115 OA
ATOM     30  O   UNL     1       5.392 134.746 330.405  0.00  0.00    -0.222 OA
ENDBRANCH  26  27
ENDBRANCH  19  26
BRANCH  31  32
ATOM     32  O   UNL     1       9.173 139.800 331.795  0.00  0.00    -0.268 OA
BRANCH  32  33
ATOM     33  P   UNL     1       8.289 140.869 331.019  0.00  0.00    +0.533 P 
ATOM     34  O   UNL     1       7.343 141.444 332.015  0.00  0.00    -0.115 OA
ATOM     35  O   UNL     1       9.281 141.833 330.504  0.00  0.00    -0.115 OA
ATOM     36  O   UNL     1       7.694 140.072 329.923  0.00  0.00    -0.222 OA
ENDBRANCH  32  33
ENDBRANCH  31  32
TORSDOF 12
