REMARK  Name = 5ID
REMARK  2 active torsions:
REMARK  status: ('A' for Active; 'I' for Inactive)
REMARK    1  A    between atoms: C5'_2  and  C4'_3
REMARK    2  A    between atoms: C1'_5  and  N9_6
REMARK                            x       y       z     vdW  Elec       q    Type
REMARK                         _______ _______ _______ _____ _____    ______ ____
ROOT
ATOM      8  N   UNL     1      13.207  10.561  12.608  0.00  0.00    -0.286 N 
ATOM      9  C   UNL     1      12.752  11.564  13.424  0.00  0.00    +0.151 A 
ATOM     10  N   UNL     1      13.150  11.799  14.681  0.00  0.00    -0.206 NA
ATOM     11  C   UNL     1      12.514  12.813  15.256  0.00  0.00    +0.202 A 
ATOM     12  N   UNL     1      11.551  13.583  14.744  0.00  0.00    -0.206 NA
ATOM     13  C   UNL     1      11.146  13.336  13.482  0.00  0.00    +0.175 A 
ATOM     14  N   UNL     1      10.152  14.080  13.001  0.00  0.00    -0.107 NA
ATOM     15  C   UNL     1      11.762  12.295  12.740  0.00  0.00    +0.076 A 
ATOM     16  C   UNL     1      11.646  11.670  11.467  0.00  0.00    +0.053 A 
ATOM     17  I   UNL     1      10.383  12.189   9.903  0.00  0.00    -0.041 I 
ATOM     18  C   UNL     1      12.528  10.634  11.422  0.00  0.00    +0.085 A 
ENDROOT
BRANCH   8   7
ATOM      3  C4* UNL     1      14.637   7.724  11.629  0.00  0.00    +0.183 C 
ATOM      4  C3* UNL     1      13.495   7.440  12.595  0.00  0.00    +0.216 C 
ATOM      5  C2* UNL     1      13.790   8.406  13.729  0.00  0.00    +0.234 C 
ATOM      6  O2* UNL     1      14.841   7.987  14.605  0.00  0.00    -0.216 OA
ATOM      7  C1* UNL     1      14.273   9.626  12.957  0.00  0.00    +0.240 C 
ATOM     19  O3* UNL     1      13.526   6.064  12.991  0.00  0.00    -0.218 OA
ATOM     20  O4* UNL     1      14.865   9.139  11.771  0.00  0.00    -0.331 OA
BRANCH   3   2
ATOM      1  O5* UNL     1      13.164   7.896   9.672  0.00  0.00    -0.218 OA
ATOM      2  C5* UNL     1      14.393   7.369  10.182  0.00  0.00    +0.214 C 
ENDBRANCH   3   2
ENDBRANCH   8   7
TORSDOF 2
