REMARK  Name = 4acm_ligand
REMARK  10 active torsions:
REMARK  status: ('A' for Active; 'I' for Inactive)
REMARK    1  A    between atoms: C1_1  and  N2_2
REMARK    2  A    between atoms: N2_2  and  C3_3
REMARK    3  A    between atoms: N2_2  and  C4_4
REMARK    4  A    between atoms: C4_4  and  C5_5
REMARK    5  A    between atoms: C5_5  and  N6_6
REMARK    6  A    between atoms: N6_6  and  S7_7
REMARK    7  A    between atoms: S7_7  and  C10_10
REMARK    8  A    between atoms: C13_13  and  C16_16
REMARK    9  A    between atoms: C20_20  and  C22_22
REMARK   10  A    between atoms: N24_24  and  C25_25
REMARK                            x       y       z     vdW  Elec       q    Type
REMARK                         _______ _______ _______ _____ _____    ______ ____
ROOT
ATOM     12  C   UNL     1       2.332  30.193   7.533  0.00  0.00    +0.074 A 
ATOM     13  N   UNL     1       1.338  30.024   8.423  0.00  0.00    -0.260 NA
ATOM     14  C   UNL     1       0.492  31.044   8.659  0.00  0.00    +0.176 A 
ATOM     25  C   UNL     1       0.632  32.292   7.942  0.00  0.00    +0.162 A 
ATOM     26  N   UNL     1      -0.168  33.335   8.173  0.00  0.00    -0.311 N 
ATOM     27  H   UNL     1      -0.933  33.252   8.842  0.00  0.00    +0.182 HD
ATOM     28  H   UNL     1      -0.014  34.215   7.680  0.00  0.00    +0.182 HD
ATOM     29  N   UNL     1       1.635  32.437   7.049  0.00  0.00    -0.253 NA
ATOM     30  C   UNL     1       2.455  31.401   6.841  0.00  0.00    +0.130 A 
ENDROOT
BRANCH  12  11
ATOM      8  C   UNL     1       5.292  27.105   7.369  0.00  0.00    +0.109 A 
ATOM      9  C   UNL     1       5.235  28.052   6.356  0.00  0.00    +0.030 A 
ATOM     10  C   UNL     1       4.267  29.040   6.408  0.00  0.00    +0.013 A 
ATOM     11  C   UNL     1       3.365  29.127   7.475  0.00  0.00    -0.000 A 
ATOM     31  C   UNL     1       3.457  28.162   8.478  0.00  0.00    +0.013 A 
ATOM     32  C   UNL     1       4.417  27.168   8.439  0.00  0.00    +0.030 A 
BRANCH   8   7
ATOM      7  S   UNL     1       6.532  25.856   7.341  0.00  0.00    +0.068 S 
ATOM     33  O   UNL     1       7.325  26.017   8.523  0.00  0.00    -0.150 OA
ATOM     34  O   UNL     1       7.171  25.876   6.061  0.00  0.00    -0.150 OA
BRANCH   7   5
ATOM      5  N   UNL     1       5.789  24.429   7.476  0.00  0.00    -0.249 NA
ATOM      6  H   UNL     1       6.077  23.776   8.205  0.00  0.00    +0.167 HD
BRANCH   5   4
ATOM      4  C   UNL     1       4.701  24.061   6.559  0.00  0.00    +0.099 C 
BRANCH   4   3
ATOM      3  C   UNL     1       4.773  22.575   6.218  0.00  0.00    -0.090 C 
BRANCH   3   2
ATOM      1  C   UNL     1       5.339  20.356   6.999  0.00  0.00    -0.132 C 
ATOM      2  N   UNL     1       4.703  21.627   7.336  0.00  0.00    +0.400 NA
ATOM     35  C   UNL     1       3.319  21.402   7.754  0.00  0.00    -0.132 C 
ENDBRANCH   3   2
ENDBRANCH   4   3
ENDBRANCH   5   4
ENDBRANCH   7   5
ENDBRANCH   8   7
ENDBRANCH  12  11
BRANCH  14  15
ATOM     15  C   UNL     1      -0.578  30.806   9.685  0.00  0.00    +0.254 C 
ATOM     16  N   UNL     1      -0.468  29.642  10.359  0.00  0.00    -0.225 N 
ATOM     17  H   UNL     1       0.348  29.072  10.136  0.00  0.00    +0.228 HD
ATOM     24  O   UNL     1      -1.470  31.631   9.849  0.00  0.00    -0.370 OA
BRANCH  16  18
ATOM     18  C   UNL     1      -1.344  29.115  11.336  0.00  0.00    +0.094 A 
ATOM     19  C   UNL     1      -2.682  29.479  11.494  0.00  0.00    +0.102 A 
ATOM     20  N   UNL     1      -3.495  28.933  12.408  0.00  0.00    -0.313 NA
ATOM     21  C   UNL     1      -2.982  27.979  13.191  0.00  0.00    +0.064 A 
ATOM     22  C   UNL     1      -1.672  27.558  13.119  0.00  0.00    +0.019 A 
ATOM     23  C   UNL     1      -0.848  28.123  12.165  0.00  0.00    +0.041 A 
ENDBRANCH  16  18
ENDBRANCH  14  15
TORSDOF 8
