REMARK  Name = 4TTH
REMARK  3 active torsions:
REMARK  status: ('A' for Active; 'I' for Inactive)
REMARK    1  A    between atoms: C_2  and  N_19
REMARK    2  A    between atoms: N_23  and  C_24
REMARK    3  A    between atoms: C_26  and  N_28
REMARK                            x       y       z     vdW  Elec       q    Type
REMARK                         _______ _______ _______ _____ _____    ______ ____
ROOT
ATOM      1  N   UNL     1     -28.723  19.090 -14.805  0.00  0.00    -0.261 NA
ATOM      2  C   UNL     1     -28.984  18.580 -13.584  0.00  0.00    +0.111 A 
ATOM      3  C   UNL     1     -29.754  19.228 -12.623  0.00  0.00    +0.030 A 
ATOM      4  C   UNL     1     -30.275  20.473 -12.954  0.00  0.00    +0.014 A 
ATOM      5  C   UNL     1     -31.116  21.456 -12.240  0.00  0.00    +0.045 A 
ATOM      6  C   UNL     1     -31.308  22.517 -13.105  0.00  0.00    +0.147 A 
ATOM      7  N   UNL     1     -30.642  22.238 -14.280  0.00  0.00    -0.320 N 
ATOM     13  N   UNL     1     -32.022  23.603 -12.788  0.00  0.00    -0.196 NA
ATOM     14  C   UNL     1     -32.570  23.629 -11.558  0.00  0.00    +0.222 A 
ATOM     15  N   UNL     1     -33.331  24.702 -11.121  0.00  0.00    -0.268 N 
ATOM     16  H   UNL     1     -33.535  24.740 -10.071  0.00  0.00    +0.156 HD
ATOM     30  N   UNL     1     -32.419  22.627 -10.663  0.00  0.00    -0.222 NA
ATOM     31  C   UNL     1     -31.699  21.531 -10.973  0.00  0.00    +0.126 A 
ATOM     32  C   UNL     1     -30.013  21.004 -14.206  0.00  0.00    +0.070 A 
ATOM     33  C   UNL     1     -29.234  20.294 -15.119  0.00  0.00    +0.137 A 
ENDROOT
BRANCH  15  17
ATOM     17  C   UNL     1     -33.856  25.727 -11.882  0.00  0.00    +0.125 A 
ATOM     18  N   UNL     1     -35.071  26.137 -11.503  0.00  0.00    -0.238 NA
ATOM     19  C   UNL     1     -35.667  27.121 -12.177  0.00  0.00    +0.136 A 
ATOM     20  C   UNL     1     -35.102  27.771 -13.276  0.00  0.00    +0.048 A 
ATOM     28  C   UNL     1     -33.797  27.310 -13.672  0.00  0.00    +0.028 A 
ATOM     29  C   UNL     1     -33.185  26.296 -12.964  0.00  0.00    +0.045 A 
BRANCH  20  21
ATOM     21  N   UNL     1     -35.777  28.795 -13.947  0.00  0.00    -0.326 N 
ATOM     22  C   UNL     1     -35.052  29.306 -15.130  0.00  0.00    +0.120 C 
ATOM     23  C   UNL     1     -35.791  30.398 -15.919  0.00  0.00    +0.100 C 
ATOM     24  N   UNL     1     -37.168  30.010 -16.252  0.00  0.00    -0.313 NA
ATOM     25  H   UNL     1     -37.666  30.833 -16.722  0.00  0.00    +0.122 HD
ATOM     26  C   UNL     1     -37.889  29.639 -15.023  0.00  0.00    +0.100 C 
ATOM     27  C   UNL     1     -37.184  28.495 -14.276  0.00  0.00    +0.120 C 
ENDBRANCH  20  21
ENDBRANCH  15  17
BRANCH   7   8
ATOM      8  C   UNL     1     -30.650  23.169 -15.416  0.00  0.00    +0.089 C 
ATOM      9  C   UNL     1     -31.362  22.657 -16.670  0.00  0.00    +0.025 C 
ATOM     10  C   UNL     1     -30.948  23.677 -17.740  0.00  0.00    +0.002 C 
ATOM     11  C   UNL     1     -29.707  24.412 -17.190  0.00  0.00    +0.002 C 
ATOM     12  C   UNL     1     -29.297  23.671 -15.913  0.00  0.00    +0.025 C 
ENDBRANCH   7   8
TORSDOF 3
