REMARK  Name = 4o0r_ligand
REMARK  11 active torsions:
REMARK  status: ('A' for Active; 'I' for Inactive)
REMARK    1  A    between atoms: C3_3  and  N7_7
REMARK    2  A    between atoms: C5_5  and  C10_10
REMARK    3  A    between atoms: C5_5  and  C11_11
REMARK    4  A    between atoms: N7_7  and  C12_12
REMARK    5  A    between atoms: N16_16  and  C21_21
REMARK    6  A    between atoms: C20_20  and  C25_25
REMARK    7  A    between atoms: C21_21  and  C26_26
REMARK    8  A    between atoms: C21_21  and  C27_27
REMARK    9  A    between atoms: C27_27  and  N30_30
REMARK   10  A    between atoms: N30_30  and  C34_34
REMARK   11  A    between atoms: N30_30  and  C35_35
REMARK                            x       y       z     vdW  Elec       q    Type
REMARK                         _______ _______ _______ _____ _____    ______ ____
ROOT
ATOM      1  C   UNL     1      16.059 -16.960  15.072  0.00  0.00    +0.030 A 
ATOM      2  C   UNL     1      15.989 -15.795  14.115  0.00  0.00    +0.168 C 
ATOM      3  N   UNL     1      17.125 -15.878  13.192  0.00  0.00    -0.277 N 
ATOM      4  C   UNL     1      17.371 -15.001  12.193  0.00  0.00    +0.256 C 
ATOM      5  O   UNL     1      18.326 -15.125  11.452  0.00  0.00    -0.401 OA
ATOM      6  N   UNL     1      16.533 -13.962  12.018  0.00  0.00    -0.254 N 
ATOM      7  H   UNL     1      15.753 -13.846  12.633  0.00  0.00    +0.188 HD
ATOM     20  C   UNL     1      17.895 -17.072  13.569  0.00  0.00    +0.049 C 
ATOM     21  C   UNL     1      19.318 -16.687  13.981  0.00  0.00    -0.013 C 
ATOM     22  C   UNL     1      17.929 -18.094  12.421  0.00  0.00    -0.013 C 
ATOM     23  C   UNL     1      15.450 -17.568  16.143  0.00  0.00    +0.202 A 
ATOM     24  N   UNL     1      16.197 -18.651  16.457  0.00  0.00    -0.171 N 
ATOM     25  H   UNL     1      16.000 -19.318  17.217  0.00  0.00    +0.273 HD
ATOM     26  N   UNL     1      17.276 -18.713  15.580  0.00  0.00    -0.183 NA
ATOM     39  C   UNL     1      17.197 -17.703  14.750  0.00  0.00    +0.033 A 
ENDROOT
BRANCH  23  27
ATOM     27  N   UNL     1      14.287 -17.214  16.838  0.00  0.00    -0.230 N 
ATOM     28  H   UNL     1      14.282 -17.354  17.858  0.00  0.00    +0.219 HD
BRANCH  27  29
ATOM     29  C   UNL     1      13.138 -16.688  16.257  0.00  0.00    +0.155 A 
ATOM     30  N   UNL     1      13.076 -16.400  14.963  0.00  0.00    -0.264 NA
ATOM     31  C   UNL     1      11.984 -15.893  14.425  0.00  0.00    +0.065 A 
ATOM     32  C   UNL     1      11.999 -15.587  12.947  0.00  0.00    +0.130 C 
ATOM     33  N   UNL     1      10.898 -15.655  15.124  0.00  0.00    -0.305 NA
ATOM     34  C   UNL     1      10.851 -15.918  16.452  0.00  0.00    +0.033 A 
ATOM     35  C   UNL     1       9.796 -15.733  17.368  0.00  0.00    +0.003 A 
ATOM     36  C   UNL     1      10.059 -16.086  18.617  0.00  0.00    +0.096 A 
ATOM     37  S   UNL     1      11.700 -16.708  18.765  0.00  0.00    -0.025 S 
ATOM     38  C   UNL     1      11.998 -16.451  17.050  0.00  0.00    +0.103 A 
ENDBRANCH  27  29
ENDBRANCH  23  27
BRANCH   6   8
ATOM      8  C   UNL     1      16.752 -13.003  10.938  0.00  0.00    +0.193 C 
BRANCH   8  14
ATOM     14  C   UNL     1      15.688 -13.289   9.916  0.00  0.00    -0.013 A 
ATOM     15  C   UNL     1      16.012 -13.478   8.588  0.00  0.00    -0.002 A 
ATOM     16  C   UNL     1      15.009 -13.734   7.672  0.00  0.00    -0.009 A 
ATOM     17  C   UNL     1      13.689 -13.802   8.085  0.00  0.00    -0.013 A 
ATOM     18  C   UNL     1      13.365 -13.612   9.415  0.00  0.00    -0.009 A 
ATOM     19  C   UNL     1      14.368 -13.355  10.330  0.00  0.00    -0.002 A 
ENDBRANCH   8  14
BRANCH   8   9
ATOM      9  C   UNL     1      16.543 -11.558  11.401  0.00  0.00    +0.173 C 
BRANCH   9  10
ATOM     10  N   UNL     1      17.507 -11.105  12.414  0.00  0.00    +0.234 N 
ATOM     11  H   UNL     1      17.191 -11.397  13.326  0.00  0.00    +0.203 HD
ATOM     12  C   UNL     1      17.587  -9.641  12.357  0.00  0.00    +0.190 C 
ATOM     13  C   UNL     1      18.849 -11.644  12.173  0.00  0.00    +0.190 C 
ENDBRANCH   9  10
ENDBRANCH   8   9
ENDBRANCH   6   8
TORSDOF 6
