REMARK  Name = MFZ
REMARK  4 active torsions:
REMARK  status: ('A' for Active; 'I' for Inactive)
REMARK    1  A    between atoms: C2_2  and  C3_3
REMARK    2  A    between atoms: C4_4  and  C5_5
REMARK    3  A    between atoms: C2_17  and  C3_18
REMARK    4  A    between atoms: C4_19  and  C5_20
REMARK                            x       y       z     vdW  Elec       q    Type
REMARK                         _______ _______ _______ _____ _____    ______ ____
ROOT
ATOM      5  C   UNL     1       7.417  -1.735  61.680  0.00  0.00    +0.063 A 
ATOM      6  C   UNL     1       6.150  -1.497  62.172  0.00  0.00    +0.107 A 
ATOM      7  N   UNL     1       5.705  -0.327  61.636  0.00  0.00    -0.242 NA
ATOM      8  C   UNL     1       6.680   0.202  60.809  0.00  0.00    +0.093 A 
ATOM      9  C   UNL     1       6.779   1.380  60.045  0.00  0.00    +0.075 A 
ATOM     10 CL   UNL     1       5.464   2.513  59.997  0.00  0.00    -0.081 Cl
ATOM     11  C   UNL     1       7.911   1.653  59.292  0.00  0.00    +0.014 A 
ATOM     12  C   UNL     1       8.971   0.766  59.291  0.00  0.00    +0.012 A 
ATOM     13  C   UNL     1       8.918  -0.378  60.070  0.00  0.00    +0.060 A 
ATOM     14 CL   UNL     1      10.266  -1.468  60.029  0.00  0.00    -0.082 Cl
ATOM     15  C   UNL     1       7.778  -0.687  60.843  0.00  0.00    +0.038 A 
ENDROOT
BRANCH   5   4
ATOM      3  C   UNL     1       8.875  -3.830  62.258  0.00  0.00    -0.051 C 
ATOM      4  C   UNL     1       8.211  -2.876  61.995  0.00  0.00    -0.060 C 
BRANCH   3   2
ATOM      1  O   UNL     1      10.926  -5.014  61.870  0.00  0.00    -0.205 OA
ATOM      2  C   UNL     1       9.693  -5.006  62.582  0.00  0.00    +0.258 C 
ENDBRANCH   3   2
ENDBRANCH   5   4
TORSDOF 2
