REMARK  Name = 2bal_ligand
REMARK  6 active torsions:
REMARK  status: ('A' for Active; 'I' for Inactive)
REMARK    1  A    between atoms: N1_1  and  C2_2
REMARK    2  A    between atoms: C3_3  and  C14_14
REMARK    3  A    between atoms: N6_6  and  C7_7
REMARK    4  A    between atoms: C14_14  and  C16_16
REMARK    5  A    between atoms: C20_20  and  O21_21
REMARK    6  A    between atoms: O21_21  and  C22_22
REMARK                            x       y       z     vdW  Elec       q    Type
REMARK                         _______ _______ _______ _____ _____    ______ ____
ROOT
ATOM     16  C   UNL     1      -2.470  -1.839  22.665  0.00  0.00    +0.124 C 
ATOM     32  O   UNL     1      -2.865  -2.954  22.322  0.00  0.00    -0.396 OA
ENDROOT
BRANCH  16  17
ATOM     17  C   UNL     1      -1.740  -1.702  23.948  0.00  0.00    +0.016 A 
ATOM     18  C   UNL     1      -2.181  -2.452  25.053  0.00  0.00    +0.043 A 
ATOM     19  C   UNL     1      -1.505  -2.335  26.271  0.00  0.00    +0.097 A 
ATOM     29  C   UNL     1      -0.402  -1.491  26.387  0.00  0.00    +0.029 A 
ATOM     30  C   UNL     1       0.041  -0.751  25.295  0.00  0.00    -0.005 A 
ATOM     31  C   UNL     1      -0.623  -0.856  24.065  0.00  0.00    +0.002 A 
BRANCH  19  20
ATOM     20  O   UNL     1      -1.871  -3.009  27.411  0.00  0.00    -0.313 OA
BRANCH  20  21
ATOM     21  C   UNL     1      -3.236  -2.804  27.801  0.00  0.00    +0.156 C 
ATOM     22  C   UNL     1      -3.287  -1.670  28.838  0.00  0.00    +0.087 C 
ATOM     23  C   UNL     1      -2.770  -2.062  30.223  0.00  0.00    +0.132 C 
ATOM     24  N   UNL     1      -2.284  -3.443  30.277  0.00  0.00    +0.227 N 
ATOM     25  H   UNL     1      -2.082  -3.670  31.238  0.00  0.00    +0.201 HD
ATOM     26  H   UNL     1      -1.438  -3.502  29.733  0.00  0.00    +0.201 HD
ATOM     27  C   UNL     1      -3.238  -4.437  29.758  0.00  0.00    +0.132 C 
ATOM     28  C   UNL     1      -3.774  -4.123  28.359  0.00  0.00    +0.087 C 
ENDBRANCH  20  21
ENDBRANCH  19  20
ENDBRANCH  16  17
BRANCH  16  15
ATOM      4  C   UNL     1      -3.209  -0.767  20.538  0.00  0.00    +0.194 A 
ATOM      5  N   UNL     1      -3.348   0.536  20.070  0.00  0.00    -0.139 N 
ATOM     13  N   UNL     1      -3.014   1.441  21.036  0.00  0.00    -0.222 NA
ATOM     14  C   UNL     1      -2.645   0.702  22.082  0.00  0.00    +0.060 A 
ATOM     15  C   UNL     1      -2.745  -0.682  21.838  0.00  0.00    +0.066 A 
BRANCH   5   6
ATOM      6  C   UNL     1      -3.856   0.958  18.821  0.00  0.00    +0.108 A 
ATOM      7  C   UNL     1      -5.236   0.708  18.653  0.00  0.00    +0.029 A 
ATOM      8  C   UNL     1      -5.882   1.061  17.473  0.00  0.00    +0.026 A 
ATOM      9  C   UNL     1      -5.149   1.671  16.464  0.00  0.00    +0.125 A 
ATOM     10  F   UNL     1      -5.765   2.029  15.330  0.00  0.00    -0.190 F 
ATOM     11  C   UNL     1      -3.790   1.915  16.615  0.00  0.00    +0.026 A 
ATOM     12  C   UNL     1      -3.131   1.557  17.790  0.00  0.00    +0.029 A 
ENDBRANCH   5   6
BRANCH   4   1
ATOM      1  N   UNL     1      -3.472  -1.876  19.805  0.00  0.00    -0.299 N 
ATOM      2  H   UNL     1      -3.799  -1.785  18.832  0.00  0.00    +0.183 HD
ATOM      3  H   UNL     1      -3.345  -2.810  20.221  0.00  0.00    +0.183 HD
ENDBRANCH   4   1
ENDBRANCH  16  15
TORSDOF 6
