REMARK  Name = WSH
REMARK  5 active torsions:
REMARK  status: ('A' for Active; 'I' for Inactive)
REMARK    1  A    between atoms: C14_15  and  C13_21
REMARK    2  A    between atoms: C7_17  and  C6_25
REMARK    3  A    between atoms: C5_22  and  O2_32
REMARK    4  A    between atoms: C4_23  and  N3_30
REMARK    5  A    between atoms: C6_25  and  O2_32
REMARK                            x       y       z     vdW  Elec       q    Type
REMARK                         _______ _______ _______ _____ _____    ______ ____
ROOT
ATOM      5  C   UNL     1      20.326  11.385 -11.037  0.00  0.00    +0.080 C 
ATOM      6  C   UNL     1      19.071  10.659 -10.754  0.00  0.00    +0.034 A 
ATOM      7  C   UNL     1      19.038   9.489 -10.010  0.00  0.00    +0.068 A 
ATOM      8  N   UNL     1      20.222   8.883  -9.460  0.00  0.00    -0.278 N 
ATOM      9  C   UNL     1      20.410   8.235  -8.263  0.00  0.00    +0.147 A 
ATOM     10  C   UNL     1      19.380   8.100  -7.218  0.00  0.00    +0.074 C 
ATOM     11  N   UNL     1      21.630   7.764  -8.197  0.00  0.00    -0.133 NA
ATOM     12  N   UNL     1      22.281   8.100  -9.364  0.00  0.00    -0.129 NA
ATOM     13  C   UNL     1      21.441   8.769 -10.114  0.00  0.00    +0.191 A 
ATOM     14  C   UNL     1      21.559   9.404 -11.483  0.00  0.00    +0.259 C 
ATOM     26  C   UNL     1      17.837   8.847  -9.780  0.00  0.00    +0.018 A 
ATOM     27  C   UNL     1      16.664   9.365 -10.280  0.00  0.00    +0.002 A 
ATOM     28  C   UNL     1      16.693  10.528 -11.013  0.00  0.00    +0.000 A 
ATOM     29  C   UNL     1      17.887  11.169 -11.251  0.00  0.00    +0.003 A 
ATOM     30  N   UNL     1      21.446  10.859 -11.358  0.00  0.00    -0.243 NA
ENDROOT
BRANCH   5   4
ATOM      1  C   UNL     1      20.233  15.644 -10.881  0.00  0.00    +0.000 A 
ATOM      2  C   UNL     1      19.559  14.896  -9.944  0.00  0.00    +0.000 A 
ATOM      3  C   UNL     1      19.588  13.522  -9.995  0.00  0.00    +0.002 A 
ATOM      4  C   UNL     1      20.296  12.877 -10.984  0.00  0.00    +0.017 A 
ATOM     31  C   UNL     1      20.969  13.630 -11.922  0.00  0.00    +0.002 A 
ATOM     32  C   UNL     1      20.941  15.010 -11.874  0.00  0.00    +0.000 A 
ENDBRANCH   5   4
BRANCH  14  15
ATOM     15  N   UNL     1      22.845   9.117 -12.060  0.00  0.00    -0.138 NA
ATOM     16  C   UNL     1      23.080   9.332 -13.370  0.00  0.00    +0.423 C 
ATOM     25  O   UNL     1      22.247   9.755 -14.165  0.00  0.00    -0.225 OA
BRANCH  16  17
ATOM     17  O   UNL     1      24.358   9.005 -13.698  0.00  0.00    -0.428 OA
BRANCH  17  18
ATOM     18  C   UNL     1      24.878   9.766 -14.793  0.00  0.00    +0.237 C 
BRANCH  18  19
ATOM     19  C   UNL     1      25.955   9.017 -15.526  0.00  0.00    +0.021 A 
ATOM     20  C   UNL     1      26.657   7.983 -14.938  0.00  0.00    -0.001 A 
ATOM     21  C   UNL     1      27.639   7.312 -15.631  0.00  0.00    -0.000 A 
ATOM     22  C   UNL     1      27.936   7.666 -16.926  0.00  0.00    -0.000 A 
ATOM     23  C   UNL     1      27.244   8.697 -17.521  0.00  0.00    -0.000 A 
ATOM     24  C   UNL     1      26.260   9.367 -16.825  0.00  0.00    -0.001 A 
ENDBRANCH  18  19
ENDBRANCH  17  18
ENDBRANCH  16  17
ENDBRANCH  14  15
TORSDOF 5
