REMARK  Name = 2o64_ligand
REMARK  6 active torsions:
REMARK  status: ('A' for Active; 'I' for Inactive)
REMARK    1  A    between atoms: C12_3  and  O19_4
REMARK    2  A    between atoms: C13_6  and  O21_7
REMARK    3  A    between atoms: C15_10  and  O22_11
REMARK    4  A    between atoms: C14_12  and  O23_13
REMARK    5  A    between atoms: C7_15  and  C6_16
REMARK    6  A    between atoms: C4_18  and  O17_19
REMARK                            x       y       z     vdW  Elec       q    Type
REMARK                         _______ _______ _______ _____ _____    ______ ____
ROOT
ATOM      1  O   UNL     1      74.029  38.919  -1.584  0.00  0.00    -0.419 OA
ATOM      2  C   UNL     1      74.342  37.860  -1.044  0.00  0.00    +0.138 A 
ATOM      3  C   UNL     1      74.412  37.775   0.428  0.00  0.00    +0.073 A 
ATOM      4  C   UNL     1      74.751  36.493   1.051  0.00  0.00    +0.111 A 
ATOM      5  O   UNL     1      74.989  35.431   0.254  0.00  0.00    -0.266 OA
ATOM      6  C   UNL     1      74.894  35.520  -1.191  0.00  0.00    +0.153 A 
ATOM     16  C   UNL     1      74.811  36.347   2.431  0.00  0.00    +0.025 A 
ATOM     17  C   UNL     1      74.568  37.419   3.287  0.00  0.00    +0.106 A 
ATOM     18  C   UNL     1      74.232  38.767   2.739  0.00  0.00    +0.139 A 
ATOM     23  C   UNL     1      74.145  38.943   1.288  0.00  0.00    +0.121 A 
ATOM     26  C   UNL     1      74.604  36.666  -1.829  0.00  0.00    +0.154 A 
ENDROOT
BRANCH   6   7
ATOM      7  C   UNL     1      75.211  34.205  -1.828  0.00  0.00    +0.028 C 
ATOM      8  C   UNL     1      75.014  33.939  -3.176  0.00  0.00    +0.025 C 
ATOM      9  C   UNL     1      75.338  32.685  -3.697  0.00  0.00    +0.041 C 
ATOM     10  C   UNL     1      75.856  31.712  -2.851  0.00  0.00    +0.147 C 
ATOM     11  O   UNL     1      76.186  30.523  -3.275  0.00  0.00    -0.402 OA
ATOM     12  C   UNL     1      76.052  31.973  -1.439  0.00  0.00    +0.272 C 
ATOM     15  C   UNL     1      75.717  33.228  -0.957  0.00  0.00    +0.089 C 
BRANCH  12  13
ATOM     13  O   UNL     1      76.539  31.008  -0.675  0.00  0.00    -0.354 OA
ATOM     14  H   UNL     1      76.698  30.236  -1.205  0.00  0.00    +0.219 HD
ENDBRANCH  12  13
ENDBRANCH   6   7
BRANCH  18  19
ATOM     19  O   UNL     1      73.991  39.821   3.509  0.00  0.00    -0.348 OA
ATOM     20  H   UNL     1      73.799  40.574   2.962  0.00  0.00    +0.237 HD
ENDBRANCH  18  19
BRANCH  17  21
ATOM     21  O   UNL     1      74.623  37.207   4.604  0.00  0.00    -0.339 OA
ATOM     22  H   UNL     1      74.438  38.018   5.062  0.00  0.00    +0.246 HD
ENDBRANCH  17  21
BRANCH  23  24
ATOM     24  O   UNL     1      73.854  40.135   0.786  0.00  0.00    -0.337 OA
ATOM     25  H   UNL     1      73.716  40.751   1.496  0.00  0.00    +0.246 HD
ENDBRANCH  23  24
BRANCH  26  27
ATOM     27  O   UNL     1      74.522  36.796  -3.163  0.00  0.00    -0.344 OA
ATOM     28  H   UNL     1      74.711  35.960  -3.574  0.00  0.00    +0.240 HD
ENDBRANCH  26  27
TORSDOF 6
