REMARK  Name = 3NAY
REMARK  9 active torsions:
REMARK  status: ('A' for Active; 'I' for Inactive)
REMARK    1  A    between atoms: C_7  and  C_28
REMARK    2  A    between atoms: C_12  and  C_23
REMARK    3  A    between atoms: N_16  and  C_17
REMARK    4  A    between atoms: C_17  and  C_18
REMARK    5  A    between atoms: C_17  and  C_19
REMARK    6  A    between atoms: C_19  and  C_20
REMARK    7  A    between atoms: C_19  and  C_21
REMARK    8  A    between atoms: C_19  and  C_22
REMARK    9  A    between atoms: C_24  and  C_25
REMARK                            x       y       z     vdW  Elec       q    Type
REMARK                         _______ _______ _______ _____ _____    ______ ____
ROOT
ATOM      1  C   UNL     1      11.432 -39.436  21.204  0.00  0.00    +0.127 A 
ATOM      2  N   UNL     1      10.049 -39.367  20.856  0.00  0.00    -0.326 N 
ATOM      3  H   UNL     1       9.306 -39.672  21.563  0.00  0.00    +0.148 HD
ATOM     10  C   UNL     1      11.895 -39.883  22.495  0.00  0.00    +0.023 A 
ATOM     11  C   UNL     1      10.984 -40.338  23.468  0.00  0.00    +0.012 A 
ATOM     12  C   UNL     1      11.453 -40.859  24.690  0.00  0.00    +0.009 A 
ATOM     13  C   UNL     1      12.836 -40.906  24.969  0.00  0.00    -0.014 A 
ATOM     20  C   UNL     1      13.780 -40.426  24.056  0.00  0.00    +0.018 A 
ATOM     21  C   UNL     1      13.347 -39.914  22.780  0.00  0.00    +0.000 A 
ATOM     22  C   UNL     1      14.264 -39.460  21.759  0.00  0.00    +0.074 A 
ATOM     23  C   UNL     1      15.752 -39.337  21.924  0.00  0.00    +0.259 C 
ATOM     24  N   UNL     1      16.479 -38.823  20.875  0.00  0.00    -0.327 N 
ATOM     25  H   UNL     1      17.523 -38.640  21.019  0.00  0.00    +0.168 HD
ATOM     26  C   UNL     1      15.918 -38.529  19.633  0.00  0.00    +0.105 C 
ATOM     27  C   UNL     1      14.562 -38.602  19.400  0.00  0.00    +0.067 C 
ATOM     33  O   UNL     1      16.308 -39.578  22.954  0.00  0.00    -0.267 OA
ATOM     34  C   UNL     1      13.717 -39.069  20.498  0.00  0.00    +0.096 A 
ATOM     35  N   UNL     1      12.358 -39.095  20.232  0.00  0.00    -0.230 NA
ENDROOT
BRANCH  13  14
ATOM     14  C   UNL     1      13.299 -41.505  26.162  0.00  0.00    +0.019 A 
ATOM     15  C   UNL     1      14.467 -41.356  26.959  0.00  0.00    +0.142 A 
ATOM     16  N   UNL     1      14.450 -42.227  27.999  0.00  0.00    -0.182 NA
ATOM     17  N   UNL     1      13.277 -42.923  27.818  0.00  0.00    -0.284 N 
ATOM     18  H   UNL     1      12.958 -43.698  28.483  0.00  0.00    +0.188 HD
ATOM     19  C   UNL     1      12.564 -42.554  26.743  0.00  0.00    +0.113 A 
ENDBRANCH  13  14
BRANCH   2   4
ATOM      4  C   UNL     1       9.636 -38.874  19.516  0.00  0.00    +0.074 C 
ATOM      9  C   UNL     1       9.081 -37.418  19.573  0.00  0.00    +0.028 C 
BRANCH   4   5
ATOM      5  C   UNL     1       8.881 -39.967  18.636  0.00  0.00    -0.020 C 
ATOM      6  C   UNL     1       7.771 -40.700  19.470  0.00  0.00    +0.012 C 
ATOM      7  C   UNL     1       9.903 -41.034  18.188  0.00  0.00    +0.012 C 
ATOM      8  C   UNL     1       8.277 -39.374  17.354  0.00  0.00    +0.012 C 
ENDBRANCH   4   5
ENDBRANCH   2   4
BRANCH  27  28
ATOM     28  C   UNL     1      13.982 -38.328  18.121  0.00  0.00    -0.062 C 
ATOM     29  C   UNL     1      13.485 -38.094  17.022  0.00  0.00    -0.094 C 
BRANCH  29  30
ATOM     30  C   UNL     1      12.870 -37.728  15.743  0.00  0.00    +0.064 C 
ATOM     31  C   UNL     1      11.344 -37.790  15.763  0.00  0.00    +0.017 C 
ATOM     32  C   UNL     1      12.128 -38.703  14.904  0.00  0.00    +0.017 C 
ENDBRANCH  29  30
ENDBRANCH  27  28
TORSDOF 5
