REMARK  Name = 3SAY
REMARK  8 active torsions:
REMARK  status: ('A' for Active; 'I' for Inactive)
REMARK    1  A    between atoms: C_8  and  C_10
REMARK    2  A    between atoms: C_16  and  S_22
REMARK    3  A    between atoms: N_20  and  O_21
REMARK    4  A    between atoms: S_22  and  N_25
REMARK    5  A    between atoms: N_25  and  C_26
REMARK    6  A    between atoms: N_25  and  C_28
REMARK    7  A    between atoms: C_26  and  C_27
REMARK    8  A    between atoms: C_28  and  C_29
REMARK                            x       y       z     vdW  Elec       q    Type
REMARK                         _______ _______ _______ _____ _____    ______ ____
ROOT
ATOM      8  C   UNL     1      -9.321  13.966 -30.321  0.00  0.00    +0.075 C 
ATOM      9  C   UNL     1      -8.089  13.777 -31.097  0.00  0.00    +0.271 C 
ATOM     10  O   UNL     1      -7.943  14.184 -32.301  0.00  0.00    -0.268 OA
ATOM     11  N   UNL     1      -7.142  13.120 -30.397  0.00  0.00    -0.176 NA
ATOM     12  C   UNL     1      -7.643  12.843 -29.159  0.00  0.00    +0.065 A 
ATOM     13  C   UNL     1      -7.085  12.200 -28.070  0.00  0.00    +0.028 A 
ATOM     14  C   UNL     1      -7.830  12.047 -26.901  0.00  0.00    +0.030 A 
ATOM     15  C   UNL     1      -9.147  12.505 -26.760  0.00  0.00    +0.106 A 
ATOM     24  C   UNL     1      -9.775  13.176 -27.823  0.00  0.00    +0.039 A 
ATOM     25  C   UNL     1      -9.053  13.348 -29.006  0.00  0.00    +0.014 A 
ENDROOT
BRANCH   8   7
ATOM      1  C   UNL     1     -13.943  16.090 -31.104  0.00  0.00    +0.012 A 
ATOM      2  C   UNL     1     -14.416  16.724 -32.258  0.00  0.00    +0.001 A 
ATOM      3  C   UNL     1     -13.615  16.846 -33.403  0.00  0.00    +0.002 A 
ATOM      4  C   UNL     1     -12.305  16.351 -33.451  0.00  0.00    +0.028 A 
ATOM      5  C   UNL     1     -11.767  15.711 -32.338  0.00  0.00    +0.074 A 
ATOM      6  N   UNL     1     -10.557  15.142 -32.104  0.00  0.00    -0.244 NA
ATOM      7  C   UNL     1     -10.531  14.649 -30.854  0.00  0.00    +0.106 C 
ATOM     26  C   UNL     1     -11.807  14.887 -30.163  0.00  0.00    +0.138 C 
ATOM     27  N   UNL     1     -12.169  14.537 -28.893  0.00  0.00    -0.085 NA
ATOM     30  C   UNL     1     -12.646  15.594 -31.135  0.00  0.00    +0.031 A 
BRANCH  27  28
ATOM     28  O   UNL     1     -13.442  14.847 -28.410  0.00  0.00    -0.409 OA
ATOM     29  H   UNL     1     -13.581  15.888 -28.431  0.00  0.00    +0.328 HD
ENDBRANCH  27  28
ENDBRANCH   8   7
BRANCH  15  16
ATOM     16  S   UNL     1      -9.864  12.243 -25.342  0.00  0.00    +0.061 S 
ATOM     22  O   UNL     1      -9.520  13.323 -24.461  0.00  0.00    -0.153 OA
ATOM     23  O   UNL     1      -9.332  11.035 -24.773  0.00  0.00    -0.153 OA
BRANCH  16  17
ATOM     17  N   UNL     1     -11.410  12.141 -25.420  0.00  0.00    -0.177 NA
BRANCH  17  18
ATOM     18  C   UNL     1     -12.045  11.200 -26.352  0.00  0.00    +0.106 C 
ATOM     19  C   UNL     1     -13.185  11.791 -27.160  0.00  0.00    +0.022 C 
ENDBRANCH  17  18
BRANCH  17  20
ATOM     20  C   UNL     1     -12.260  12.925 -24.513  0.00  0.00    +0.106 C 
ATOM     21  C   UNL     1     -12.593  14.305 -25.053  0.00  0.00    +0.022 C 
ENDBRANCH  17  20
ENDBRANCH  16  17
ENDBRANCH  15  16
TORSDOF 6
