REMARK  Name = 3tki_ligand
REMARK  6 active torsions:
REMARK  status: ('A' for Active; 'I' for Inactive)
REMARK    1  A    between atoms: N_2  and  C19_23
REMARK    2  A    between atoms: C4_8  and  C11_15
REMARK    3  A    between atoms: C6_10  and  C21_25
REMARK    4  A    between atoms: N23_27  and  C24_28
REMARK    5  A    between atoms: C24_28  and  C25_29
REMARK    6  A    between atoms: C25_29  and  N26_30
REMARK                            x       y       z     vdW  Elec       q    Type
REMARK                         _______ _______ _______ _____ _____    ______ ____
ROOT
ATOM      7  C   UNL     1      21.275  -1.899   8.607  0.00  0.00    +0.050 A 
ATOM      8  C   UNL     1      20.235  -0.992   8.473  0.00  0.00    +0.057 A 
ATOM      9  C   UNL     1      19.009  -1.202   9.076  0.00  0.00    +0.127 A 
ATOM     10  N   UNL     1      18.042  -0.213   8.843  0.00  0.00    -0.222 N 
ATOM     11  H   UNL     1      18.348   0.625   8.328  0.00  0.00    +0.227 HD
ATOM     12  C   UNL     1      16.737  -0.254   9.233  0.00  0.00    +0.208 A 
ATOM     13  N   UNL     1      15.926   0.741   8.943  0.00  0.00    -0.302 NA
ATOM     14  C   UNL     1      14.677   0.511   9.452  0.00  0.00    +0.041 A 
ATOM     15  C   UNL     1      14.508  -0.678  10.134  0.00  0.00    +0.052 A 
ATOM     32  S   UNL     1      15.995  -1.542  10.121  0.00  0.00    +0.027 S 
ATOM     33  N   UNL     1      18.793  -2.274   9.847  0.00  0.00    -0.297 NA
ATOM     34  C   UNL     1      19.794  -3.150   9.978  0.00  0.00    +0.059 A 
ATOM     35  C   UNL     1      21.032  -3.012   9.391  0.00  0.00    +0.023 A 
ENDROOT
BRANCH   7   6
ATOM      1  C   UNL     1      23.504  -2.780   8.099  0.00  0.00    +0.161 C 
ATOM      2  C   UNL     1      23.533  -3.506   6.767  0.00  0.00    +0.184 C 
ATOM      3  O   UNL     1      23.756  -2.554   5.721  0.00  0.00    -0.376 OA
ATOM      4  C   UNL     1      22.650  -1.652   5.601  0.00  0.00    +0.184 C 
ATOM      5  C   UNL     1      22.582  -0.791   6.851  0.00  0.00    +0.161 C 
ATOM      6  N   UNL     1      22.555  -1.667   8.023  0.00  0.00    -0.299 N 
ENDBRANCH   7   6
BRANCH  15  16
ATOM     16  C   UNL     1      13.362  -1.120  10.912  0.00  0.00    +0.013 A 
ATOM     17  C   UNL     1      12.326  -0.226  11.101  0.00  0.00    +0.098 A 
ATOM     18  N   UNL     1      11.240  -0.449  11.852  0.00  0.00    -0.297 NA
ATOM     19  C   UNL     1      11.235  -1.632  12.489  0.00  0.00    +0.108 A 
ATOM     20  C   UNL     1      12.217  -2.594  12.386  0.00  0.00    +0.072 A 
ATOM     31  C   UNL     1      13.315  -2.343  11.572  0.00  0.00    +0.053 A 
BRANCH  20  21
ATOM     21  C   UNL     1      12.023  -3.840  13.155  0.00  0.00    +0.211 C 
ATOM     22  N   UNL     1      13.079  -4.722  13.157  0.00  0.00    -0.280 N 
ATOM     23  H   UNL     1      13.909  -4.500  12.644  0.00  0.00    +0.185 HD
ATOM     30  O   UNL     1      10.966  -3.992  13.768  0.00  0.00    -0.382 OA
BRANCH  22  24
ATOM     24  C   UNL     1      13.004  -5.967  13.892  0.00  0.00    +0.185 C 
BRANCH  24  25
ATOM     25  C   UNL     1      14.102  -6.083  14.933  0.00  0.00    +0.152 C 
BRANCH  25  26
ATOM     26  N   UNL     1      14.175  -4.833  15.747  0.00  0.00    +0.220 N 
ATOM     27  H   UNL     1      14.374  -4.050  15.144  0.00  0.00    +0.200 HD
ATOM     28  H   UNL     1      13.294  -4.683  16.212  0.00  0.00    +0.200 HD
ATOM     29  H   UNL     1      14.907  -4.922  16.434  0.00  0.00    +0.200 HD
ENDBRANCH  25  26
ENDBRANCH  24  25
ENDBRANCH  22  24
ENDBRANCH  20  21
ENDBRANCH  15  16
TORSDOF 6
