REMARK  Name = 3r21_ligand
REMARK  8 active torsions:
REMARK  status: ('A' for Active; 'I' for Inactive)
REMARK    1  A    between atoms: S_1  and  C1_2
REMARK    2  A    between atoms: S_1  and  N1_3
REMARK    3  A    between atoms: N1_3  and  C2_5
REMARK    4  A    between atoms: N1_3  and  C4_10
REMARK    5  A    between atoms: C2_5  and  C3_8
REMARK    6  A    between atoms: N2_6  and  C3_8
REMARK    7  A    between atoms: N3_9  and  C7_16
REMARK    8  A    between atoms: N5_13  and  C10_21
REMARK                            x       y       z     vdW  Elec       q    Type
REMARK                         _______ _______ _______ _____ _____    ______ ____
ROOT
ATOM     10  N   UNL     1       3.296  32.904   6.658  0.00  0.00    -0.247 N 
ATOM     11  H   UNL     1       2.748  33.596   7.168  0.00  0.00    +0.216 HD
ATOM     12  C   UNL     1       3.957  31.988   7.427  0.00  0.00    +0.197 A 
ATOM     13  N   UNL     1       3.809  31.977   8.791  0.00  0.00    -0.258 NA
ATOM     14  C   UNL     1       4.469  31.076   9.529  0.00  0.00    +0.110 A 
ATOM     15  C   UNL     1       5.309  30.134   8.900  0.00  0.00    +0.049 A 
ATOM     16  C   UNL     1       6.120  29.093   9.484  0.00  0.00    +0.102 A 
ATOM     17  N   UNL     1       6.739  28.508   8.431  0.00  0.00    -0.200 NA
ATOM     18  N   UNL     1       6.287  29.163   7.270  0.00  0.00    -0.180 N 
ATOM     26  C   UNL     1       5.431  30.155   7.546  0.00  0.00    +0.160 A 
ATOM     27  N   UNL     1       4.767  31.075   6.834  0.00  0.00    -0.237 NA
ENDROOT
BRANCH  18  19
ATOM     19  C   UNL     1       6.879  28.617   6.017  0.00  0.00    +0.146 C 
ATOM     20  C   UNL     1       5.766  28.261   5.020  0.00  0.00    +0.037 C 
ATOM     21  C   UNL     1       6.355  27.544   3.811  0.00  0.00    +0.003 C 
ATOM     22  C   UNL     1       6.748  28.541   2.689  0.00  0.00    +0.000 C 
ATOM     23  C   UNL     1       8.073  29.271   3.003  0.00  0.00    +0.000 C 
ATOM     24  C   UNL     1       7.760  30.256   4.136  0.00  0.00    +0.003 C 
ATOM     25  C   UNL     1       7.914  29.672   5.553  0.00  0.00    +0.037 C 
ENDBRANCH  18  19
BRANCH  10   8
ATOM      5  C   UNL     1       2.974  33.498   2.560  0.00  0.00    +0.126 A 
ATOM      6  N   UNL     1       2.166  34.114   3.446  0.00  0.00    -0.300 NA
ATOM      7  C   UNL     1       2.292  33.870   4.773  0.00  0.00    +0.082 A 
ATOM      8  C   UNL     1       3.272  33.016   5.302  0.00  0.00    +0.076 A 
ATOM      9  C   UNL     1       4.155  32.374   4.413  0.00  0.00    +0.029 A 
ATOM     28  C   UNL     1       3.998  32.604   3.026  0.00  0.00    +0.031 A 
BRANCH   5   4
ATOM      4  N   UNL     1       2.775  33.757   1.199  0.00  0.00    -0.162 N 
BRANCH   4   1
ATOM      1  S   UNL     1       3.805  34.655   0.486  0.00  0.00    +0.061 S 
ATOM      2  O   UNL     1       4.640  33.824  -0.313  0.00  0.00    -0.150 OA
ATOM      3  O   UNL     1       4.724  35.307   1.411  0.00  0.00    -0.150 OA
ATOM     35  C   UNL     1       3.121  35.863  -0.439  0.00  0.00    +0.226 C 
ENDBRANCH   4   1
BRANCH   4  29
ATOM     29  C   UNL     1       1.633  33.137   0.490  0.00  0.00    +0.219 C 
BRANCH  29  30
ATOM     30  C   UNL     1       2.071  31.721   0.060  0.00  0.00    +0.156 C 
BRANCH  30  31
ATOM     31  N   UNL     1       1.595  31.311  -1.284  0.00  0.00    +0.220 N 
ATOM     32  H   UNL     1       1.956  31.959  -1.984  0.00  0.00    +0.200 HD
ATOM     33  H   UNL     1       0.575  31.325  -1.301  0.00  0.00    +0.200 HD
ATOM     34  H   UNL     1       1.927  30.368  -1.488  0.00  0.00    +0.200 HD
ENDBRANCH  30  31
ENDBRANCH  29  30
ENDBRANCH   4  29
ENDBRANCH   5   4
ENDBRANCH  10   8
TORSDOF 7
