REMARK  Name = B7S
REMARK  0 active torsions:
REMARK  status: ('A' for Active; 'I' for Inactive)
REMARK                            x       y       z     vdW  Elec       q    Type
REMARK                         _______ _______ _______ _____ _____    ______ ____
ROOT
ATOM      1  C   UNL     1     -16.164  13.915  41.907  0.00  0.00    +0.205 C 
ATOM      2  O   UNL     1     -17.313  14.126  42.232  0.00  0.00    -0.286 OA
ATOM      3  C   UNL     1     -15.182  15.016  41.972  0.00  0.00    +0.083 C 
ATOM      4  C   UNL     1     -13.939  14.775  41.572  0.00  0.00    +0.183 C 
ATOM      5  O   UNL     1     -13.491  13.517  41.313  0.00  0.00    -0.450 OA
ATOM      6  C   UNL     1     -14.362  12.450  41.164  0.00  0.00    +0.155 A 
ATOM      7  C   UNL     1     -13.892  11.207  40.721  0.00  0.00    +0.080 A 
ATOM      8  C   UNL     1     -14.765  10.124  40.568  0.00  0.00    +0.202 A 
ATOM      9  C   UNL     1     -16.123  10.241  40.846  0.00  0.00    +0.084 A 
ATOM     10  C   UNL     1     -16.583  11.484  41.286  0.00  0.00    +0.205 A 
ATOM     11  O   UNL     1     -17.876  11.669  41.568  0.00  0.00    -0.286 OA
ATOM     12  O   UNL     1     -14.302   8.938  40.143  0.00  0.00    -0.286 OA
ATOM     13  C   UNL     1     -15.716  12.597  41.448  0.00  0.00    +0.113 A 
ENDROOT
TORSDOF 0
