REMARK  Name = 3O8T
REMARK  7 active torsions:
REMARK  status: ('A' for Active; 'I' for Inactive)
REMARK    1  A    between atoms: N_3  and  C_4
REMARK    2  A    between atoms: N_11  and  C_12
REMARK    3  A    between atoms: C_14  and  C_21
REMARK    4  A    between atoms: N_16  and  C_17
REMARK    5  A    between atoms: C_18  and  C_21
REMARK    6  A    between atoms: C_19  and  C_21
REMARK    7  A    between atoms: C_20  and  C_21
REMARK                            x       y       z     vdW  Elec       q    Type
REMARK                         _______ _______ _______ _____ _____    ______ ____
ROOT
ATOM      1  C   UNL     1     -18.252   5.431  18.966  0.00  0.00    +0.309 C 
ATOM      2  N   UNL     1     -17.941   6.370  19.850  0.00  0.00    -0.254 N 
ATOM      3  H   UNL     1     -18.640   6.622  20.620  0.00  0.00    +0.158 HD
ATOM     14  N   UNL     1     -19.474   4.911  19.062  0.00  0.00    -0.269 N 
ATOM     15  H   UNL     1     -20.066   5.224  19.897  0.00  0.00    +0.156 HD
ATOM     23  O   UNL     1     -17.437   5.082  18.130  0.00  0.00    -0.252 OA
ENDROOT
BRANCH  14  16
ATOM     16  C   UNL     1     -20.044   4.026  18.209  0.00  0.00    +0.035 A 
ATOM     17  C   UNL     1     -19.295   3.020  17.591  0.00  0.00    +0.025 A 
ATOM     18  C   UNL     1     -19.917   2.116  16.734  0.00  0.00    +0.022 A 
ATOM     19  C   UNL     1     -21.294   2.200  16.508  0.00  0.00    +0.041 A 
ATOM     20 CL   UNL     1     -22.063   1.008  15.400  0.00  0.00    -0.084 Cl
ATOM     21  C   UNL     1     -22.046   3.200  17.133  0.00  0.00    +0.022 A 
ATOM     22  C   UNL     1     -21.419   4.099  17.990  0.00  0.00    +0.025 A 
ENDBRANCH  14  16
BRANCH   2   4
ATOM      4  C   UNL     1     -16.740   7.021  19.791  0.00  0.00    +0.124 A 
ATOM      5  N   UNL     1     -16.258   7.392  20.985  0.00  0.00    -0.253 N 
ATOM      6  C   UNL     1     -16.747   7.264  22.387  0.00  0.00    +0.174 C 
ATOM      7  N   UNL     1     -15.031   8.045  20.815  0.00  0.00    -0.174 NA
ATOM      8  C   UNL     1     -14.831   8.019  19.482  0.00  0.00    +0.070 A 
ATOM     13  C   UNL     1     -15.847   7.391  18.774  0.00  0.00    +0.069 A 
BRANCH   8   9
ATOM      9  C   UNL     1     -13.570   8.618  18.885  0.00  0.00    +0.006 C 
ATOM     10  C   UNL     1     -13.902   9.890  18.114  0.00  0.00    +0.017 C 
ATOM     11  C   UNL     1     -12.587   8.926  20.007  0.00  0.00    +0.017 C 
ATOM     12  C   UNL     1     -12.871   7.649  17.963  0.00  0.00    +0.017 C 
ENDBRANCH   8   9
ENDBRANCH   2   4
TORSDOF 3
