REMARK  Name = 3poz_ligand
REMARK  12 active torsions:
REMARK  status: ('A' for Active; 'I' for Inactive)
REMARK    1  A    between atoms: N3_2  and  C7_6
REMARK    2  A    between atoms: C6_5  and  C7_6
REMARK    3  A    between atoms: C6_5  and  N2_33
REMARK    4  A    between atoms: C8_7  and  C9_35
REMARK    5  A    between atoms: C10_8  and  N4_27
REMARK    6  A    between atoms: C13_9  and  O1_22
REMARK    7  A    between atoms: C20_12  and  C22_14
REMARK    8  A    between atoms: C24_15  and  C23_36
REMARK    9  A    between atoms: C16_21  and  O1_22
REMARK   10  A    between atoms: C9_35  and  C23_36
REMARK   11  A    between atoms: C23_36  and  O2_37
REMARK   12  A    between atoms: C23_36  and  C25_38
REMARK                            x       y       z     vdW  Elec       q    Type
REMARK                         _______ _______ _______ _____ _____    ______ ____
ROOT
ATOM      1  N   UNL     1      14.734  33.559  13.161  0.00  0.00    -0.270 NA
ATOM      2  C   UNL     1      13.519  33.645  13.738  0.00  0.00    +0.141 A 
ATOM      3  N   UNL     1      13.371  34.064  15.005  0.00  0.00    -0.313 NA
ATOM      4  C   UNL     1      14.475  34.412  15.705  0.00  0.00    +0.038 A 
ATOM      5  C   UNL     1      15.733  34.309  15.146  0.00  0.00    +0.140 A 
ATOM      6  N   UNL     1      16.593  34.740  16.100  0.00  0.00    -0.252 N 
ATOM     19  C   UNL     1      15.890  35.034  17.235  0.00  0.00    +0.136 A 
ATOM     20  C   UNL     1      14.518  34.854  17.058  0.00  0.00    -0.013 A 
ATOM     21  C   UNL     1      15.875  33.886  13.812  0.00  0.00    +0.168 A 
ATOM     22  N   UNL     1      17.081  33.810  13.180  0.00  0.00    -0.260 N 
ATOM     23  H   UNL     1      17.933  33.973  13.736  0.00  0.00    +0.214 HD
ENDROOT
BRANCH  22  24
ATOM     24  C   UNL     1      17.224  33.527  11.835  0.00  0.00    +0.055 A 
ATOM     25  C   UNL     1      16.476  34.203  10.862  0.00  0.00    +0.021 A 
ATOM     26  C   UNL     1      16.654  33.895   9.521  0.00  0.00    +0.064 A 
ATOM     27 CL   UNL     1      15.676  34.766   8.319  0.00  0.00    -0.080 Cl
ATOM     28  C   UNL     1      17.550  32.921   9.098  0.00  0.00    +0.120 A 
ATOM     29  C   UNL     1      18.317  32.250  10.052  0.00  0.00    +0.016 A 
ATOM     41  C   UNL     1      18.135  32.543  11.422  0.00  0.00    +0.007 A 
BRANCH  28  30
ATOM     30  O   UNL     1      17.688  32.640   7.745  0.00  0.00    -0.257 OA
BRANCH  30  31
ATOM     31  C   UNL     1      17.456  31.366   7.300  0.00  0.00    +0.142 A 
ATOM     32  C   UNL     1      16.266  30.695   7.625  0.00  0.00    +0.077 A 
ATOM     33  C   UNL     1      16.048  29.394   7.164  0.00  0.00    +0.039 A 
ATOM     34  C   UNL     1      17.012  28.782   6.348  0.00  0.00    +0.036 A 
ATOM     35  C   UNL     1      18.188  29.452   6.017  0.00  0.00    +0.029 A 
ATOM     40  C   UNL     1      18.404  30.743   6.486  0.00  0.00    +0.081 A 
BRANCH  33  36
ATOM     36  C   UNL     1      14.802  28.623   7.500  0.00  0.00    +0.374 C 
ATOM     37  F   UNL     1      15.102  27.632   8.330  0.00  0.00    -0.221 F 
ATOM     38  F   UNL     1      14.283  28.118   6.395  0.00  0.00    -0.221 F 
ATOM     39  F   UNL     1      13.867  29.356   8.056  0.00  0.00    -0.221 F 
ENDBRANCH  33  36
ENDBRANCH  30  31
ENDBRANCH  28  30
ENDBRANCH  22  24
BRANCH   6   7
ATOM      7  C   UNL     1      18.073  34.788  16.054  0.00  0.00    +0.200 C 
BRANCH   7   8
ATOM      8  C   UNL     1      18.783  36.032  15.531  0.00  0.00    +0.167 C 
BRANCH   8   9
ATOM      9  N   UNL     1      20.225  35.775  15.395  0.00  0.00    -0.284 N 
ATOM     10  H   UNL     1      20.857  36.185  16.052  0.00  0.00    +0.185 HD
ATOM     11  C   UNL     1      20.715  35.001  14.407  0.00  0.00    +0.179 C 
ATOM     18  O   UNL     1      20.014  34.442  13.583  0.00  0.00    -0.397 OA
BRANCH  11  12
ATOM     12  C   UNL     1      22.220  34.825  14.324  0.00  0.00    +0.172 C 
BRANCH  12  13
ATOM     13  C   UNL     1      22.607  33.386  13.956  0.00  0.00    +0.077 C 
ATOM     14  C   UNL     1      22.147  32.956  12.561  0.00  0.00    +0.043 C 
ATOM     17  C   UNL     1      24.121  33.228  14.043  0.00  0.00    +0.043 C 
BRANCH  13  15
ATOM     15  O   UNL     1      22.020  32.500  14.919  0.00  0.00    -0.387 OA
ATOM     16  H   UNL     1      21.075  32.598  14.903  0.00  0.00    +0.210 HD
ENDBRANCH  13  15
ENDBRANCH  12  13
ENDBRANCH  11  12
ENDBRANCH   8   9
ENDBRANCH   7   8
ENDBRANCH   6   7
TORSDOF 10
