REMARK  Name = 2c6i_ligand
REMARK  7 active torsions:
REMARK  status: ('A' for Active; 'I' for Inactive)
REMARK    1  A    between atoms: S1_2  and  N6_4
REMARK    2  A    between atoms: S1_2  and  C16_5
REMARK    3  A    between atoms: C13_10  and  N5_11
REMARK    4  A    between atoms: N5_11  and  C9_12
REMARK    5  A    between atoms: C7_20  and  O1_22
REMARK    6  A    between atoms: C20_21  and  O1_22
REMARK    7  A    between atoms: C20_21  and  C1_23
REMARK                            x       y       z     vdW  Elec       q    Type
REMARK                         _______ _______ _______ _____ _____    ______ ____
ROOT
ATOM      9  C   UNL     1       1.630  30.030   7.656  0.00  0.00    +0.244 A 
ATOM     10  C   UNL     1       1.018  28.990   8.369  0.00  0.00    +0.100 A 
ATOM     11  C   UNL     1      -0.098  29.293   9.156  0.00  0.00    +0.150 A 
ATOM     20  N   UNL     1      -0.629  30.562   9.209  0.00  0.00    -0.260 NA
ATOM     21  C   UNL     1      -0.043  31.517   8.469  0.00  0.00    +0.208 A 
ATOM     22  N   UNL     1      -0.367  32.821   8.368  0.00  0.00    -0.306 NA
ATOM     23  C   UNL     1       0.560  33.342   7.525  0.00  0.00    +0.125 A 
ATOM     24  N   UNL     1       1.403  32.373   7.116  0.00  0.00    -0.185 NA
ATOM     25  N   UNL     1       1.038  31.255   7.717  0.00  0.00    -0.087 N 
ENDROOT
BRANCH   9   7
ATOM      7  N   UNL     1       2.732  29.818   6.861  0.00  0.00    -0.223 N 
ATOM      8  H   UNL     1       2.880  30.469   6.076  0.00  0.00    +0.226 HD
BRANCH   7   6
ATOM      3  C   UNL     1       5.530  26.822   7.339  0.00  0.00    +0.097 A 
ATOM      4  C   UNL     1       4.832  27.235   8.480  0.00  0.00    +0.017 A 
ATOM      5  C   UNL     1       3.901  28.253   8.297  0.00  0.00    +0.019 A 
ATOM      6  C   UNL     1       3.651  28.813   7.025  0.00  0.00    +0.072 A 
ATOM     26  C   UNL     1       4.359  28.361   5.899  0.00  0.00    +0.019 A 
ATOM     27  C   UNL     1       5.305  27.341   6.070  0.00  0.00    +0.017 A 
BRANCH   3   2
ATOM      1  O   UNL     1       7.865  26.080   8.284  0.00  0.00    -0.152 OA
ATOM      2  S   UNL     1       6.691  25.575   7.554  0.00  0.00    +0.061 S 
ATOM     31  O   UNL     1       7.140  25.234   6.207  0.00  0.00    -0.152 OA
BRANCH   2  28
ATOM     28  N   UNL     1       6.063  24.342   8.367  0.00  0.00    -0.262 NA
ATOM     29  H   UNL     1       6.008  23.439   7.941  0.00  0.00    +0.163 HD
ATOM     30  H   UNL     1       5.727  24.477   9.299  0.00  0.00    +0.163 HD
ENDBRANCH   2  28
ENDBRANCH   3   2
ENDBRANCH   7   6
ENDBRANCH   9   7
BRANCH  11  12
ATOM     12  O   UNL     1      -0.694  28.300   9.876  0.00  0.00    -0.294 OA
BRANCH  12  13
ATOM     13  C   UNL     1      -0.395  28.459  11.265  0.00  0.00    +0.206 C 
BRANCH  13  14
ATOM     14  C   UNL     1      -0.600  27.108  11.970  0.00  0.00    +0.021 C 
ATOM     15  C   UNL     1      -0.737  27.327  13.479  0.00  0.00    +0.006 C 
ATOM     16  C   UNL     1      -0.745  25.971  14.184  0.00  0.00    +0.000 C 
ATOM     17  C   UNL     1      -1.949  25.165  13.691  0.00  0.00    +0.000 C 
ATOM     18  C   UNL     1      -1.841  24.944  12.176  0.00  0.00    +0.000 C 
ATOM     19  C   UNL     1      -1.792  26.294  11.450  0.00  0.00    +0.006 C 
ENDBRANCH  13  14
ENDBRANCH  12  13
ENDBRANCH  11  12
TORSDOF 7
