REMARK  Name = 2exc_ligand
REMARK  5 active torsions:
REMARK  status: ('A' for Active; 'I' for Inactive)
REMARK    1  A    between atoms: C1_1  and  C2_2
REMARK    2  A    between atoms: N11_11  and  C15_15
REMARK    3  A    between atoms: C16_16  and  C19_19
REMARK    4  A    between atoms: C28_28  and  O29_29
REMARK    5  A    between atoms: O29_29  and  C30_30
REMARK                            x       y       z     vdW  Elec       q    Type
REMARK                         _______ _______ _______ _____ _____    ______ ____
ROOT
ATOM     16  C   UNL     1      19.976   8.376  31.864  0.00  0.00    -0.008 A 
ATOM     17  C   UNL     1      18.677   7.966  32.218  0.00  0.00    +0.018 A 
ATOM     18  C   UNL     1      18.401   6.615  32.243  0.00  0.00    +0.071 A 
ATOM     19  N   UNL     1      19.333   5.729  31.926  0.00  0.00    -0.285 NA
ATOM     20  C   UNL     1      20.552   6.060  31.535  0.00  0.00    +0.140 A 
ATOM     21  N   UNL     1      21.533   5.081  31.299  0.00  0.00    -0.218 N 
ATOM     22  H   UNL     1      21.285   4.131  31.488  0.00  0.00    +0.231 HD
ATOM     23  C   UNL     1      22.808   5.319  30.829  0.00  0.00    +0.211 C 
ATOM     24  O   UNL     1      23.179   6.435  30.487  0.00  0.00    -0.383 OA
ATOM     33  C   UNL     1      20.903   7.394  31.531  0.00  0.00    +0.057 A 
ENDROOT
BRANCH  16   1
ATOM      1  C   UNL     1      20.359   9.819  31.781  0.00  0.00    -0.006 A 
ATOM      2  C   UNL     1      21.436  10.213  30.971  0.00  0.00    +0.024 A 
ATOM      3  C   UNL     1      21.761  11.542  30.862  0.00  0.00    +0.076 A 
ATOM      4  N   UNL     1      21.065  12.452  31.515  0.00  0.00    -0.282 NA
ATOM      5  C   UNL     1      20.023  12.158  32.298  0.00  0.00    +0.131 A 
ATOM      6  N   UNL     1      19.345  13.213  32.941  0.00  0.00    -0.263 N 
ATOM      7  H   UNL     1      19.602  14.173  32.669  0.00  0.00    +0.211 HD
ATOM     15  C   UNL     1      19.636  10.823  32.447  0.00  0.00    +0.060 A 
BRANCH   6   8
ATOM      8  C   UNL     1      18.347  13.067  33.923  0.00  0.00    +0.057 A 
ATOM      9  C   UNL     1      18.540  12.201  35.014  0.00  0.00    +0.012 A 
ATOM     10  C   UNL     1      17.552  12.049  35.987  0.00  0.00    +0.019 A 
ATOM     11  C   UNL     1      16.357  12.772  35.892  0.00  0.00    +0.120 A 
ATOM     12  F   UNL     1      15.397  12.624  36.852  0.00  0.00    -0.193 F 
ATOM     13  C   UNL     1      16.177  13.651  34.804  0.00  0.00    +0.019 A 
ATOM     14  C   UNL     1      17.154  13.809  33.817  0.00  0.00    +0.012 A 
ENDBRANCH   6   8
ENDBRANCH  16   1
BRANCH  23  25
ATOM     25  C   UNL     1      23.845   4.221  30.752  0.00  0.00    +0.110 C 
ATOM     26  C   UNL     1      24.394   3.874  29.359  0.00  0.00    +0.028 C 
ATOM     27  C   UNL     1      25.589   2.894  29.600  0.00  0.00    +0.034 C 
ATOM     28  C   UNL     1      25.926   2.467  30.963  0.00  0.00    +0.118 C 
ATOM     31  C   UNL     1      24.663   2.083  31.792  0.00  0.00    +0.034 C 
ATOM     32  C   UNL     1      23.420   2.963  31.527  0.00  0.00    +0.028 C 
BRANCH  28  29
ATOM     29  O   UNL     1      26.715   3.467  31.660  0.00  0.00    -0.380 OA
ATOM     30  C   UNL     1      28.134   3.199  31.677  0.00  0.00    +0.194 C 
ENDBRANCH  28  29
ENDBRANCH  23  25
TORSDOF 4
