REMARK  Name = 9HZ
REMARK  7 active torsions:
REMARK  status: ('A' for Active; 'I' for Inactive)
REMARK    1  A    between atoms: OBC_2  and  CAZ_3
REMARK    2  A    between atoms: CAZ_3  and  CAY_5
REMARK    3  A    between atoms: CAY_5  and  CBA_6
REMARK    4  A    between atoms: CAY_5  and  CAJ_9
REMARK    5  A    between atoms: CBA_6  and  CBB_7
REMARK    6  A    between atoms: CAQ_20  and  OAS_21
REMARK    7  A    between atoms: CAH_25  and  CAE_26
REMARK                            x       y       z     vdW  Elec       q    Type
REMARK                         _______ _______ _______ _____ _____    ______ ____
ROOT
ATOM      6  C   UNL     1     -37.336   1.047 -13.632  0.00  0.00    +0.143 C 
ATOM      7  N   UNL     1     -38.614   0.906 -12.963  0.00  0.00    -0.204 NA
ATOM      8  C   UNL     1     -39.655   0.208 -13.296  0.00  0.00    +0.119 C 
ATOM     16  C   UNL     1     -39.812  -0.507 -14.548  0.00  0.00    +0.017 A 
ATOM     17  C   UNL     1     -41.072  -0.482 -15.156  0.00  0.00    +0.036 A 
ATOM     18  C   UNL     1     -41.402  -1.103 -16.354  0.00  0.00    +0.139 A 
ATOM     21  C   UNL     1     -40.373  -1.779 -17.015  0.00  0.00    +0.038 A 
ATOM     22  C   UNL     1     -39.082  -1.813 -16.448  0.00  0.00    +0.020 A 
ATOM     23  C   UNL     1     -38.752  -1.198 -15.212  0.00  0.00    +0.064 A 
ATOM     24  N   UNL     1     -37.404  -1.275 -14.673  0.00  0.00    -0.280 N 
ATOM     25  C   UNL     1     -36.458  -2.300 -14.688  0.00  0.00    +0.147 A 
ATOM     26  N   UNL     1     -35.336  -1.890 -14.031  0.00  0.00    -0.133 NA
ATOM     27  N   UNL     1     -35.525  -0.657 -13.598  0.00  0.00    -0.132 NA
ATOM     28  C   UNL     1     -36.546  -3.627 -15.291  0.00  0.00    +0.074 C 
ATOM     29  C   UNL     1     -36.747  -0.273 -13.997  0.00  0.00    +0.163 A 
ENDROOT
BRANCH   8   9
ATOM      9  C   UNL     1     -40.489  -0.095 -12.077  0.00  0.00    -0.002 A 
ATOM     10  C   UNL     1     -40.658   0.738 -10.989  0.00  0.00    -0.002 A 
ATOM     11  C   UNL     1     -41.422   0.395  -9.877  0.00  0.00    +0.011 A 
ATOM     12  C   UNL     1     -42.060  -0.819  -9.848  0.00  0.00    +0.058 A 
ATOM     13 CL   UNL     1     -43.020  -1.294  -8.507  0.00  0.00    -0.082 Cl
ATOM     14  C   UNL     1     -41.932  -1.685 -10.921  0.00  0.00    +0.011 A 
ATOM     15  C   UNL     1     -41.150  -1.303 -11.991  0.00  0.00    -0.002 A 
ENDBRANCH   8   9
BRANCH  18  19
ATOM     19  O   UNL     1     -42.682  -0.996 -16.850  0.00  0.00    -0.471 OA
ATOM     20  C   UNL     1     -43.051  -1.613 -18.075  0.00  0.00    +0.253 C 
ENDBRANCH  18  19
BRANCH   6   5
ATOM      5  C   UNL     1     -36.422   2.224 -13.188  0.00  0.00    +0.127 C 
BRANCH   5   3
ATOM      3  C   UNL     1     -37.376   3.355 -12.944  0.00  0.00    +0.319 C 
ATOM      4  O   UNL     1     -37.367   4.068 -11.941  0.00  0.00    -0.250 OA
BRANCH   3   2
ATOM      1  C   UNL     1     -39.203   4.683 -13.596  0.00  0.00    +0.256 C 
ATOM      2  O   UNL     1     -38.339   3.601 -13.892  0.00  0.00    -0.444 OA
ENDBRANCH   3   2
ENDBRANCH   5   3
BRANCH   5  30
ATOM     30  C   UNL     1     -35.385   2.654 -14.217  0.00  0.00    +0.039 C 
BRANCH  30  31
ATOM     31  C   UNL     1     -35.696   2.876 -15.631  0.00  0.00    -0.025 C 
ATOM     32  C   UNL     1     -35.448   2.097 -16.704  0.00  0.00    -0.005 C 
ENDBRANCH  30  31
ENDBRANCH   5  30
ENDBRANCH   6   5
TORSDOF 7
