REMARK  Name = 5N87
REMARK  11 active torsions:
REMARK  status: ('A' for Active; 'I' for Inactive)
REMARK    1  A    between atoms: N_3  and  C_4
REMARK    2  A    between atoms: N_7  and  C_8
REMARK    3  A    between atoms: C_10  and  O_11
REMARK    4  A    between atoms: O_11  and  C_12
REMARK    5  A    between atoms: C_15  and  N_16
REMARK    6  A    between atoms: C_29  and  C_30
REMARK    7  A    between atoms: N_32  and  C_33
REMARK    8  A    between atoms: C_34  and  C_35
REMARK    9  A    between atoms: C_35  and  C_36
REMARK   10  A    between atoms: C_40  and  C_41
REMARK   11  A    between atoms: C_41  and  C_42
REMARK                            x       y       z     vdW  Elec       q    Type
REMARK                         _______ _______ _______ _____ _____    ______ ____
ROOT
ATOM      7  N   UNL     1      33.900  45.845  39.257  0.00  0.00    -0.281 N 
ATOM      8  H   UNL     1      33.345  46.502  38.620  0.00  0.00    +0.155 HD
ATOM      9  C   UNL     1      34.705  44.915  38.701  0.00  0.00    +0.221 A 
ATOM     10  N   UNL     1      34.890  44.981  37.372  0.00  0.00    -0.222 NA
ATOM     11  C   UNL     1      35.717  44.042  36.727  0.00  0.00    +0.125 A 
ATOM     12  C   UNL     1      36.324  43.041  37.473  0.00  0.00    +0.033 A 
ATOM     13  C   UNL     1      37.156  42.104  36.841  0.00  0.00    +0.011 C 
ATOM     14  C   UNL     1      37.407  40.823  37.661  0.00  0.00    +0.007 C 
ATOM     15  C   UNL     1      37.289  40.963  39.049  0.00  0.00    +0.114 C 
ATOM     16  C   UNL     1      37.697  40.194  40.085  0.00  0.00    +0.042 C 
ATOM     31  C   UNL     1      37.321  40.797  41.220  0.00  0.00    +0.003 C 
ATOM     32  C   UNL     1      36.678  41.911  40.893  0.00  0.00    +0.135 C 
ATOM     33  N   UNL     1      36.664  42.028  39.562  0.00  0.00    -0.295 N 
ATOM     34  C   UNL     1      36.104  43.007  38.843  0.00  0.00    +0.135 A 
ATOM     35  N   UNL     1      35.305  43.924  39.410  0.00  0.00    -0.199 NA
ENDROOT
BRANCH   7   6
ATOM      3  C   UNL     1      33.512  46.457  43.345  0.00  0.00    +0.033 A 
ATOM      4  C   UNL     1      33.474  45.147  42.846  0.00  0.00    +0.025 A 
ATOM      5  C   UNL     1      33.594  44.898  41.477  0.00  0.00    +0.029 A 
ATOM      6  C   UNL     1      33.777  45.968  40.593  0.00  0.00    +0.076 A 
ATOM     36  C   UNL     1      33.807  47.279  41.091  0.00  0.00    +0.143 A 
ATOM     39  C   UNL     1      33.682  47.517  42.458  0.00  0.00    +0.070 A 
BRANCH   3   2
ATOM      1  C   UNL     1      32.468  47.798  45.111  0.00  0.00    +0.120 C 
ATOM      2  N   UNL     1      33.387  46.724  44.661  0.00  0.00    -0.327 N 
ATOM     40  C   UNL     1      34.209  46.038  45.707  0.00  0.00    +0.120 C 
ATOM     41  C   UNL     1      33.502  46.223  47.034  0.00  0.00    +0.103 C 
ATOM     42  N   UNL     1      33.065  47.617  47.373  0.00  0.00    -0.302 NA
ATOM     43  C   UNL     1      33.791  48.156  48.543  0.00  0.00    +0.105 C 
ATOM     44  C   UNL     1      33.157  48.531  46.211  0.00  0.00    +0.103 C 
ENDBRANCH   3   2
BRANCH  36  37
ATOM     37  O   UNL     1      33.973  48.272  40.160  0.00  0.00    -0.493 OA
ATOM     38  C   UNL     1      33.958  49.639  40.608  0.00  0.00    +0.277 C 
ENDBRANCH  36  37
ENDBRANCH   7   6
BRANCH  16  17
ATOM     17  C   UNL     1      38.386  39.013  40.005  0.00  0.00    +0.247 C 
ATOM     18  N   UNL     1      38.413  38.237  41.129  0.00  0.00    -0.281 N 
ATOM     19  H   UNL     1      37.904  38.558  42.014  0.00  0.00    +0.155 HD
ATOM     30  O   UNL     1      38.968  38.678  38.969  0.00  0.00    -0.270 OA
BRANCH  18  20
ATOM     20  C   UNL     1      39.081  37.068  41.121  0.00  0.00    +0.040 A 
ATOM     21  C   UNL     1      40.482  37.076  41.235  0.00  0.00    -0.026 A 
ATOM     24  C   UNL     1      41.151  35.853  41.240  0.00  0.00    +0.005 A 
ATOM     25  C   UNL     1      40.448  34.652  41.136  0.00  0.00    +0.001 A 
ATOM     26  C   UNL     1      39.058  34.655  41.035  0.00  0.00    +0.005 A 
ATOM     27  C   UNL     1      38.358  35.862  41.028  0.00  0.00    -0.026 A 
BRANCH  21  22
ATOM     22  C   UNL     1      41.234  38.232  41.336  0.00  0.00    +0.033 C 
ATOM     23  C   UNL     1      41.256  38.583  42.829  0.00  0.00    +0.009 C 
ENDBRANCH  21  22
BRANCH  27  28
ATOM     28  C   UNL     1      36.964  35.811  40.925  0.00  0.00    +0.033 C 
ATOM     29  C   UNL     1      36.341  35.533  42.304  0.00  0.00    +0.009 C 
ENDBRANCH  27  28
ENDBRANCH  18  20
ENDBRANCH  16  17
TORSDOF 7
