REMARK  Name = 3l9m_ligand
REMARK  8 active torsions:
REMARK  status: ('A' for Active; 'I' for Inactive)
REMARK    1  A    between atoms: C3_6  and  CL1_27
REMARK    2  A    between atoms: N3_7  and  C10_17
REMARK    3  A    between atoms: C6_12  and  C8_15
REMARK    4  A    between atoms: N6_13  and  C7_14
REMARK    5  A    between atoms: C7_14  and  C10_17
REMARK    6  A    between atoms: C8_15  and  C10_17
REMARK    7  A    between atoms: C9_16  and  C18_25
REMARK    8  A    between atoms: C17_24  and  C19_26
REMARK                            x       y       z     vdW  Elec       q    Type
REMARK                         _______ _______ _______ _____ _____    ______ ____
ROOT
ATOM      6  N   UNL     1      31.966   1.763   6.314  0.00  0.00    -0.277 N 
ATOM      7  H   UNL     1      32.700   1.590   5.613  0.00  0.00    +0.191 HD
ATOM      8  C   UNL     1      31.303   2.993   6.454  0.00  0.00    +0.196 A 
ATOM      9  N   UNL     1      31.537   4.045   5.652  0.00  0.00    -0.258 NA
ATOM     10  N   UNL     1      30.812   5.050   5.747  0.00  0.00    -0.271 NA
ATOM     11  C   UNL     1      29.922   5.040   6.761  0.00  0.00    +0.116 A 
ATOM     23  S   UNL     1      30.054   3.502   7.610  0.00  0.00    +0.056 S 
ENDROOT
BRANCH  11  12
ATOM     12  C   UNL     1      29.003   6.115   7.123  0.00  0.00    +0.008 A 
ATOM     13  C   UNL     1      28.092   5.970   8.275  0.00  0.00    +0.016 A 
ATOM     14  C   UNL     1      27.186   7.051   8.616  0.00  0.00    +0.019 A 
ATOM     15  C   UNL     1      27.233   8.264   7.762  0.00  0.00    +0.087 A 
ATOM     16  C   UNL     1      28.139   8.411   6.621  0.00  0.00    +0.024 A 
ATOM     17  N   UNL     1      26.275   9.060   8.341  0.00  0.00    -0.222 N 
ATOM     18  H   UNL     1      26.029  10.000   7.998  0.00  0.00    +0.240 HD
ATOM     19  N   UNL     1      25.697   8.482   9.397  0.00  0.00    -0.218 NA
ATOM     20  C   UNL     1      26.177   7.275   9.645  0.00  0.00    +0.033 A 
ATOM     21  C   UNL     1      25.747   6.417  10.763  0.00  0.00    +0.094 C 
ATOM     22  C   UNL     1      29.036   7.323   6.297  0.00  0.00    +0.004 A 
ENDBRANCH  11  12
BRANCH   6   5
ATOM      5  C   UNL     1      31.497   0.734   7.285  0.00  0.00    +0.195 C 
BRANCH   5   4
ATOM      4  C   UNL     1      30.203   0.063   6.804  0.00  0.00    +0.095 C 
BRANCH   4  24
ATOM     24  N   UNL     1      30.530  -0.893   5.705  0.00  0.00    +0.224 N 
ATOM     25  H   UNL     1      31.090  -1.647   6.071  0.00  0.00    +0.200 HD
ATOM     26  H   UNL     1      29.677  -1.265   5.318  0.00  0.00    +0.200 HD
ATOM     27  H   UNL     1      31.045  -0.412   4.984  0.00  0.00    +0.200 HD
ENDBRANCH   4  24
BRANCH   4   3
ATOM      3  C   UNL     1      29.416  -0.621   7.933  0.00  0.00    +0.117 C 
BRANCH   3   2
ATOM      1  C   UNL     1      27.781   1.150   8.842  0.00  0.00    -0.013 A 
ATOM      2  C   UNL     1      28.960   0.325   9.057  0.00  0.00    -0.044 A 
ATOM     28  C   UNL     1      29.752   0.344  10.274  0.00  0.00    -0.013 A 
ATOM     29  C   UNL     1      29.364   1.225  11.335  0.00  0.00    -0.013 A 
ATOM     30  C   UNL     1      28.187   2.053  11.116  0.00  0.00    -0.053 A 
ATOM     31  C   UNL     1      27.680   3.160  12.380  0.00  0.00    +0.079 C 
ATOM     32  C   UNL     1      27.381   2.045   9.904  0.00  0.00    -0.013 A 
ENDBRANCH   3   2
ENDBRANCH   4   3
ENDBRANCH   5   4
ENDBRANCH   6   5
TORSDOF 6
