REMARK  Name = 4YO4
REMARK  0 active torsions:
REMARK  status: ('A' for Active; 'I' for Inactive)
REMARK                            x       y       z     vdW  Elec       q    Type
REMARK                         _______ _______ _______ _____ _____    ______ ____
ROOT
ATOM      1  C   UNL     1      26.330   5.851   9.745  0.00  0.00    +0.143 A 
ATOM      2  N   UNL     1      27.391   6.008  10.571  0.00  0.00    -0.157 NA
ATOM      3  N   UNL     1      27.503   5.271  11.594  0.00  0.00    -0.157 NA
ATOM      4  C   UNL     1      26.580   4.324  11.899  0.00  0.00    +0.143 A 
ATOM      5  C   UNL     1      25.507   4.127  11.104  0.00  0.00    +0.003 A 
ATOM      6  C   UNL     1      24.597   3.164  11.428  0.00  0.00    +0.010 A 
ATOM      7  C   UNL     1      23.545   3.022  10.586  0.00  0.00    +0.001 A 
ATOM      8  C   UNL     1      23.445   3.787   9.485  0.00  0.00    +0.001 A 
ATOM      9  C   UNL     1      24.345   4.759   9.175  0.00  0.00    +0.010 A 
ATOM     10  C   UNL     1      25.399   4.898  10.009  0.00  0.00    +0.003 A 
ENDROOT
TORSDOF 0
