REMARK  Name = 4RZV
REMARK  8 active torsions:
REMARK  status: ('A' for Active; 'I' for Inactive)
REMARK    1  A    between atoms: C_3  and  C_13
REMARK    2  A    between atoms: C_3  and  C_17
REMARK    3  A    between atoms: C_5  and  N_21
REMARK    4  A    between atoms: C_8  and  C_16
REMARK    5  A    between atoms: N_21  and  S_22
REMARK    6  A    between atoms: S_22  and  C_25
REMARK    7  A    between atoms: C_25  and  C_26
REMARK    8  A    between atoms: C_26  and  C_27
REMARK                            x       y       z     vdW  Elec       q    Type
REMARK                         _______ _______ _______ _____ _____    ______ ____
ROOT
ATOM     15  C   UNL     1      79.471   9.635  11.887  0.00  0.00    +0.201 C 
ATOM     16  O   UNL     1      80.544  10.072  11.639  0.00  0.00    -0.286 OA
ENDROOT
BRANCH  15  14
ATOM      7  C   UNL     1      78.058  12.916   8.727  0.00  0.00    +0.001 A 
ATOM      8  C   UNL     1      78.664  12.034   9.555  0.00  0.00    +0.022 A 
ATOM      9  C   UNL     1      77.907  11.251  10.391  0.00  0.00    +0.032 A 
ATOM     10  C   UNL     1      76.544  11.345  10.393  0.00  0.00    +0.161 A 
ATOM     11  N   UNL     1      76.050  10.448  11.322  0.00  0.00    -0.235 NA
ATOM     12  C   UNL     1      77.094   9.792  11.901  0.00  0.00    +0.125 A 
ATOM     13  N   UNL     1      75.930  12.238   9.548  0.00  0.00    -0.235 NA
ATOM     14  C   UNL     1      78.222  10.302  11.309  0.00  0.00    +0.051 A 
ATOM     33  C   UNL     1      76.673  13.015   8.721  0.00  0.00    +0.121 A 
BRANCH   7   5
ATOM      1  C   UNL     1      79.791  15.537   6.006  0.00  0.00    +0.041 A 
ATOM      2 CL   UNL     1      80.523  16.660   4.828  0.00  0.00    -0.084 Cl
ATOM      3  C   UNL     1      78.514  15.052   5.770  0.00  0.00    +0.020 A 
ATOM      4  C   UNL     1      77.925  14.179   6.671  0.00  0.00    +0.010 A 
ATOM      5  C   UNL     1      78.614  13.794   7.809  0.00  0.00    -0.016 A 
ATOM      6  C   UNL     1      79.893  14.276   8.040  0.00  0.00    +0.010 A 
ATOM     34  C   UNL     1      80.483  15.149   7.142  0.00  0.00    +0.020 A 
ENDBRANCH   7   5
ENDBRANCH  15  14
BRANCH  15  17
ATOM     17  C   UNL     1      79.341   8.412  12.795  0.00  0.00    +0.094 A 
ATOM     18  C   UNL     1      78.940   7.183  12.295  0.00  0.00    +0.137 A 
ATOM     19  F   UNL     1      78.572   6.639  11.100  0.00  0.00    -0.205 F 
ATOM     20  C   UNL     1      78.829   6.091  13.141  0.00  0.00    +0.041 A 
ATOM     21  C   UNL     1      79.124   6.227  14.488  0.00  0.00    +0.030 A 
ATOM     22  C   UNL     1      79.526   7.457  14.985  0.00  0.00    +0.084 A 
ATOM     31  C   UNL     1      79.638   8.545  14.138  0.00  0.00    +0.159 A 
ATOM     32  F   UNL     1      80.034   9.755  14.629  0.00  0.00    -0.203 F 
BRANCH  22  23
ATOM     23  N   UNL     1      79.841   7.633  16.389  0.00  0.00    -0.218 N 
ATOM     24  H   UNL     1      79.124   8.328  16.774  0.00  0.00    +0.173 HD
BRANCH  23  25
ATOM     25  S   UNL     1      79.863   6.317  17.473  0.00  0.00    +0.043 S 
ATOM     29  O   UNL     1      80.764   5.259  17.009  0.00  0.00    -0.155 OA
ATOM     30  O   UNL     1      80.495   6.710  18.733  0.00  0.00    -0.155 OA
BRANCH  25  26
ATOM     26  C   UNL     1      78.177   5.700  17.753  0.00  0.00    +0.188 C 
BRANCH  26  27
ATOM     27  C   UNL     1      77.314   6.824  18.323  0.00  0.00    +0.021 C 
ATOM     28  C   UNL     1      76.041   6.224  18.915  0.00  0.00    +0.005 C 
ENDBRANCH  26  27
ENDBRANCH  25  26
ENDBRANCH  23  25
ENDBRANCH  22  23
ENDBRANCH  15  17
TORSDOF 7
