REMARK  Name = 92C
REMARK  2 active torsions:
REMARK  status: ('A' for Active; 'I' for Inactive)
REMARK    1  A    between atoms: C11_2  and  C12_9
REMARK    2  A    between atoms: C12_9  and  C13_10
REMARK                            x       y       z     vdW  Elec       q    Type
REMARK                         _______ _______ _______ _____ _____    ______ ____
ROOT
ATOM      1  C   UNL     1       1.054  -6.943 -26.268  0.00  0.00    +0.003 A 
ATOM      2  C   UNL     1       1.978  -7.933 -26.043  0.00  0.00    +0.009 A 
ATOM      3  C   UNL     1       1.693  -9.262 -26.337  0.00  0.00    +0.058 A 
ATOM      4 CL   UNL     1       2.917 -10.493 -26.034  0.00  0.00    -0.082 Cl
ATOM      5  C   UNL     1       0.477  -9.666 -26.855  0.00  0.00    +0.013 A 
ATOM      6  C   UNL     1      -0.491  -8.675 -27.089  0.00  0.00    +0.017 A 
ATOM      7  C   UNL     1       1.048  -5.475 -26.044  0.00  0.00    +0.106 C 
ATOM     15  C   UNL     1      -0.277  -5.047 -26.521  0.00  0.00    +0.250 C 
ATOM     16  O   UNL     1      -0.774  -3.926 -26.558  0.00  0.00    -0.273 OA
ATOM     17  N   UNL     1      -1.017  -6.177 -26.952  0.00  0.00    -0.179 NA
ATOM     18  C   UNL     1      -0.211  -7.344 -26.807  0.00  0.00    +0.070 A 
ENDROOT
BRANCH   7   8
ATOM      8  C   UNL     1       2.001  -4.638 -25.597  0.00  0.00    +0.043 C 
BRANCH   8   9
ATOM      9  C   UNL     1       1.985  -3.258 -25.073  0.00  0.00    +0.018 A 
ATOM     10  C   UNL     1       3.022  -2.632 -24.309  0.00  0.00    +0.117 A 
ATOM     11  N   UNL     1       2.706  -1.333 -24.009  0.00  0.00    -0.168 NA
ATOM     12  N   UNL     1       1.496  -1.104 -24.583  0.00  0.00    -0.248 N 
ATOM     13  C   UNL     1       0.802   0.200 -24.496  0.00  0.00    +0.154 C 
ATOM     14  C   UNL     1       1.039  -2.254 -25.240  0.00  0.00    +0.092 A 
ENDBRANCH   8   9
ENDBRANCH   7   8
TORSDOF 2
