REMARK  Name = 2vtp_ligand
REMARK  4 active torsions:
REMARK  status: ('A' for Active; 'I' for Inactive)
REMARK    1  A    between atoms: C5_5  and  N6_6
REMARK    2  A    between atoms: C7_7  and  C9_9
REMARK    3  A    between atoms: C13_13  and  N14_14
REMARK    4  A    between atoms: C15_15  and  C17_17
REMARK                            x       y       z     vdW  Elec       q    Type
REMARK                         _______ _______ _______ _____ _____    ______ ____
ROOT
ATOM      9  C   UNL     1      27.936   4.963  64.709  0.00  0.00    +0.172 A 
ATOM     10  C   UNL     1      26.861   4.717  63.850  0.00  0.00    +0.101 A 
ATOM     23  C   UNL     1      26.529   3.412  64.037  0.00  0.00    +0.100 A 
ATOM     24  N   UNL     1      27.367   2.937  64.934  0.00  0.00    -0.215 NA
ATOM     25  N   UNL     1      28.245   3.876  65.368  0.00  0.00    -0.218 N 
ATOM     26  H   UNL     1      28.993   3.758  66.066  0.00  0.00    +0.249 HD
ENDROOT
BRANCH   9   8
ATOM      6  N   UNL     1      29.915   6.184  65.346  0.00  0.00    -0.238 N 
ATOM      7  H   UNL     1      30.259   5.298  65.659  0.00  0.00    +0.223 HD
ATOM      8  C   UNL     1      28.657   6.239  64.854  0.00  0.00    +0.239 C 
ATOM     27  O   UNL     1      28.146   7.284  64.476  0.00  0.00    -0.387 OA
BRANCH   6   5
ATOM      1  F   UNL     1      33.234  10.583  65.754  0.00  0.00    -0.196 F 
ATOM      2  C   UNL     1      32.426   9.513  65.650  0.00  0.00    +0.116 A 
ATOM      3  C   UNL     1      31.990   9.116  64.397  0.00  0.00    +0.015 A 
ATOM      4  C   UNL     1      31.159   8.016  64.293  0.00  0.00    +0.007 A 
ATOM      5  C   UNL     1      30.780   7.310  65.446  0.00  0.00    +0.061 A 
ATOM     28  C   UNL     1      31.235   7.741  66.701  0.00  0.00    +0.007 A 
ATOM     29  C   UNL     1      32.054   8.844  66.802  0.00  0.00    +0.015 A 
ENDBRANCH   6   5
ENDBRANCH   9   8
BRANCH  10  11
ATOM     11  N   UNL     1      26.323   5.665  62.998  0.00  0.00    -0.245 N 
ATOM     12  H   UNL     1      26.684   6.595  63.064  0.00  0.00    +0.217 HD
ATOM     13  C   UNL     1      25.359   5.444  62.091  0.00  0.00    +0.225 C 
ATOM     22  O   UNL     1      24.816   4.335  61.968  0.00  0.00    -0.381 OA
BRANCH  13  14
ATOM     14  C   UNL     1      24.934   6.642  61.276  0.00  0.00    +0.121 A 
ATOM     15  C   UNL     1      25.814   7.276  60.375  0.00  0.00    +0.152 A 
ATOM     16  F   UNL     1      27.049   6.775  60.219  0.00  0.00    -0.178 F 
ATOM     17  C   UNL     1      25.439   8.403  59.646  0.00  0.00    +0.032 A 
ATOM     18  C   UNL     1      24.167   8.945  59.820  0.00  0.00    +0.002 A 
ATOM     19  C   UNL     1      23.273   8.350  60.709  0.00  0.00    +0.032 A 
ATOM     20  C   UNL     1      23.662   7.214  61.428  0.00  0.00    +0.152 A 
ATOM     21  F   UNL     1      22.803   6.641  62.294  0.00  0.00    -0.178 F 
ENDBRANCH  13  14
ENDBRANCH  10  11
TORSDOF 4
