REMARK  Name = 57G
REMARK  9 active torsions:
REMARK  status: ('A' for Active; 'I' for Inactive)
REMARK    1  A    between atoms: C11_1  and  N10_23
REMARK    2  A    between atoms: C7_3  and  C8_9
REMARK    3  A    between atoms: C2_5  and  C3_6
REMARK    4  A    between atoms: C4_7  and  C27_12
REMARK    5  A    between atoms: C24_10  and  N21_24
REMARK    6  A    between atoms: C27_12  and  C29_14
REMARK    7  A    between atoms: C13_18  and  S18_29
REMARK    8  A    between atoms: C22_21  and  N21_24
REMARK    9  A    between atoms: N21_24  and  S18_29
REMARK                            x       y       z     vdW  Elec       q    Type
REMARK                         _______ _______ _______ _____ _____    ______ ____
ROOT
ATOM      1  C   UNL     1       2.867  55.551  23.107  0.00  0.00    +0.114 A 
ATOM      2  C   UNL     1       2.417  55.519  24.428  0.00  0.00    +0.211 A 
ATOM      3  O   UNL     1       2.882  56.449  25.313  0.00  0.00    -0.285 OA
ATOM      4  C   UNL     1       1.497  54.558  24.837  0.00  0.00    +0.045 A 
ATOM      5  C   UNL     1       1.007  53.629  23.918  0.00  0.00    +0.023 A 
ATOM      6  C   UNL     1       1.430  53.629  22.584  0.00  0.00    +0.124 A 
ATOM     30  C   UNL     1       2.365  54.608  22.187  0.00  0.00    +0.040 A 
ENDROOT
BRANCH   6   7
ATOM      7  S   UNL     1       0.850  52.529  21.532  0.00  0.00    +0.063 S 
ATOM      8  O   UNL     1      -0.480  52.047  21.887  0.00  0.00    -0.153 OA
ATOM     14  O   UNL     1       0.732  53.111  20.234  0.00  0.00    -0.153 OA
BRANCH   7   9
ATOM      9  N   UNL     1       1.807  51.346  21.481  0.00  0.00    -0.156 NA
BRANCH   9  10
ATOM     10  C   UNL     1       1.541  50.156  22.280  0.00  0.00    +0.096 C 
ATOM     11  C   UNL     1       2.485  50.184  23.450  0.00  0.00    +0.021 C 
ENDBRANCH   9  10
BRANCH   9  12
ATOM     12  C   UNL     1       3.022  51.450  20.667  0.00  0.00    +0.096 C 
ATOM     13  C   UNL     1       3.203  50.275  19.738  0.00  0.00    +0.021 C 
ENDBRANCH   9  12
ENDBRANCH   7   9
ENDBRANCH   6   7
BRANCH   1  15
ATOM     15  N   UNL     1       3.792  56.529  22.848  0.00  0.00    -0.171 NA
ATOM     16  C   UNL     1       4.379  56.764  21.674  0.00  0.00    +0.286 C 
ATOM     29  O   UNL     1       4.295  55.969  20.753  0.00  0.00    -0.266 OA
BRANCH  16  17
ATOM     17  C   UNL     1       5.113  58.028  21.354  0.00  0.00    +0.132 A 
ATOM     18  C   UNL     1       4.864  59.376  21.966  0.00  0.00    +0.004 A 
ATOM     21  C   UNL     1       5.772  60.200  21.306  0.00  0.00    +0.049 A 
ATOM     26  C   UNL     1       6.539  59.373  20.329  0.00  0.00    +0.062 A 
ATOM     27  C   UNL     1       7.639  59.716  19.354  0.00  0.00    +0.052 C 
ATOM     28  N   UNL     1       6.069  58.122  20.423  0.00  0.00    -0.245 NA
BRANCH  18  19
ATOM     19  C   UNL     1       3.864  59.752  23.044  0.00  0.00    +0.028 C 
ATOM     20  C   UNL     1       4.480  59.664  24.437  0.00  0.00    +0.005 C 
ENDBRANCH  18  19
BRANCH  21  22
ATOM     22  C   UNL     1       5.953  61.674  21.528  0.00  0.00    +0.207 C 
ATOM     23  O   UNL     1       5.293  62.291  22.346  0.00  0.00    -0.288 OA
BRANCH  22  24
ATOM     24  C   UNL     1       6.988  62.353  20.683  0.00  0.00    +0.251 C 
ATOM     25  O   UNL     1       6.930  63.770  20.688  0.00  0.00    -0.211 OA
ENDBRANCH  22  24
ENDBRANCH  21  22
ENDBRANCH  16  17
ENDBRANCH   1  15
TORSDOF 9
