REMARK  Name = 3QX2
REMARK  8 active torsions:
REMARK  status: ('A' for Active; 'I' for Inactive)
REMARK    1  A    between atoms: N_1  and  C_15
REMARK    2  A    between atoms: N_5  and  C_12
REMARK    3  A    between atoms: N_5  and  C_20
REMARK    4  A    between atoms: N_7  and  C_13
REMARK    5  A    between atoms: C_9  and  C_14
REMARK    6  A    between atoms: C_15  and  C_16
REMARK    7  A    between atoms: C_20  and  C_21
REMARK    8  A    between atoms: C_21  and  O_23
REMARK                            x       y       z     vdW  Elec       q    Type
REMARK                         _______ _______ _______ _____ _____    ______ ____
ROOT
ATOM      1  N   UNL     1      77.391  29.947  64.297  0.00  0.00    -0.282 NA
ATOM     12  C   UNL     1      78.576  29.552  63.861  0.00  0.00    +0.054 C 
ATOM     13  C   UNL     1      78.744  28.278  63.212  0.00  0.00    +0.108 C 
ATOM     14  C   UNL     1      80.002  27.834  62.736  0.00  0.00    +0.040 C 
ATOM     15  C   UNL     1      81.157  28.669  62.897  0.00  0.00    +0.144 C 
ATOM     16  C   UNL     1      81.012  29.949  63.542  0.00  0.00    +0.049 C 
ATOM     26  C   UNL     1      79.737  30.404  64.027  0.00  0.00    +0.060 C 
ENDROOT
BRANCH  26  27
ATOM     27  C   UNL     1      79.660  31.659  64.636  0.00  0.00    +0.243 C 
ATOM     28  O   UNL     1      78.818  31.913  65.481  0.00  0.00    -0.270 OA
ATOM     29  N   UNL     1      80.538  32.644  64.286  0.00  0.00    -0.325 N 
ATOM     30  H   UNL     1      80.478  33.605  64.753  0.00  0.00    +0.145 HD
ATOM     31  H   UNL     1      81.286  32.455  63.545  0.00  0.00    +0.145 HD
ENDBRANCH  26  27
BRANCH  15  17
ATOM     17  N   UNL     1      82.312  28.291  62.475  0.00  0.00    +0.058 N 
ATOM     18  O   UNL     1      83.401  28.935  62.838  0.00  0.00    -0.126 OA
ATOM     19  O   UNL     1      82.441  27.256  61.672  0.00  0.00    -0.126 OA
ENDBRANCH  15  17
BRANCH  14  20
ATOM     20  N   UNL     1      80.101  26.670  62.158  0.00  0.00    -0.343 N 
ATOM     21  H   UNL     1      80.940  26.046  62.386  0.00  0.00    +0.146 HD
BRANCH  20  22
ATOM     22  C   UNL     1      79.082  26.185  61.191  0.00  0.00    +0.129 C 
BRANCH  22  23
ATOM     23  C   UNL     1      78.489  24.876  61.693  0.00  0.00    +0.174 C 
BRANCH  23  24
ATOM     24  O   UNL     1      79.518  23.930  61.841  0.00  0.00    -0.394 OA
ATOM     25  H   UNL     1      79.985  23.773  60.914  0.00  0.00    +0.209 HD
ENDBRANCH  23  24
ENDBRANCH  22  23
ENDBRANCH  20  22
ENDBRANCH  14  20
BRANCH   1   2
ATOM      2  C   UNL     1      76.097  29.206  64.116  0.00  0.00    +0.180 C 
BRANCH   2   3
ATOM      3  C   UNL     1      76.042  28.014  65.048  0.00  0.00    +0.010 A 
ATOM      4  C   UNL     1      76.249  28.111  66.429  0.00  0.00    +0.121 A 
ATOM      5  N   UNL     1      76.224  27.038  67.272  0.00  0.00    -0.223 NA
ATOM      6  C   UNL     1      75.985  25.830  66.706  0.00  0.00    +0.212 A 
ATOM      7  N   UNL     1      75.966  24.809  67.481  0.00  0.00    -0.328 N 
ATOM      8  H   UNL     1      76.133  24.931  68.531  0.00  0.00    +0.145 HD
ATOM      9  H   UNL     1      75.783  23.835  67.078  0.00  0.00    +0.145 HD
ATOM     10  N   UNL     1      75.765  25.617  65.374  0.00  0.00    -0.223 NA
ATOM     11  C   UNL     1      75.801  26.723  64.578  0.00  0.00    +0.121 A 
ENDBRANCH   2   3
ENDBRANCH   1   2
TORSDOF 8
