REMARK  Name = 4bi1_ligand
REMARK  0 active torsions:
REMARK  status: ('A' for Active; 'I' for Inactive)
REMARK                            x       y       z     vdW  Elec       q    Type
REMARK                         _______ _______ _______ _____ _____    ______ ____
ROOT
ATOM      1  C   UNL     1       1.544  45.147  16.881  0.00  0.00    -0.001 A 
ATOM      2  C   UNL     1       0.644  44.326  17.678  0.00  0.00    +0.046 A 
ATOM      3  N   UNL     1       0.412  44.503  19.004  0.00  0.00    -0.300 NA
ATOM      4  C   UNL     1      -0.406  43.657  19.590  0.00  0.00    +0.102 A 
ATOM      5  C   UNL     1      -1.071  42.594  18.937  0.00  0.00    +0.018 A 
ATOM      6  C   UNL     1      -1.991  41.748  19.595  0.00  0.00    +0.047 A 
ATOM      7  C   UNL     1      -2.625  40.778  18.883  0.00  0.00    +0.090 A 
ATOM      8  N   UNL     1      -2.426  40.556  17.579  0.00  0.00    -0.294 NA
ATOM      9  C   UNL     1      -1.553  41.340  16.948  0.00  0.00    +0.113 A 
ATOM     10  C   UNL     1      -0.827  42.398  17.543  0.00  0.00    +0.038 A 
ATOM     11  C   UNL     1       0.081  43.284  16.882  0.00  0.00    +0.077 A 
ATOM     12  S   UNL     1       0.684  43.328  15.258  0.00  0.00    -0.022 S 
ATOM     13  C   UNL     1       1.645  44.719  15.605  0.00  0.00    +0.086 A 
ENDROOT
TORSDOF 0
