REMARK  Name = 6QA1
REMARK  0 active torsions:
REMARK  status: ('A' for Active; 'I' for Inactive)
REMARK                            x       y       z     vdW  Elec       q    Type
REMARK                         _______ _______ _______ _____ _____    ______ ____
ROOT
ATOM      1  N   UNL     1       7.646   6.493  48.678  0.00  0.00    -0.760 NA
ATOM      2  C   UNL     1       8.880   6.366  49.178  0.00  0.00    +0.250 A 
ATOM      3  C   UNL     1       9.934   7.152  48.774  0.00  0.00    -0.130 A 
ATOM      4  C   UNL     1       9.712   8.126  47.829  0.00  0.00    -0.130 A 
ATOM      5  C   UNL     1       8.443   8.276  47.310  0.00  0.00    -0.130 A 
ATOM      6  C   UNL     1       7.399   7.445  47.752  0.00  0.00    +0.430 A 
ATOM      7  N   UNL     1       6.150   7.551  47.282  0.00  0.00    -0.550 NA
ENDROOT
TORSDOF 0
