REMARK  Name = 2xng_ligand
REMARK  8 active torsions:
REMARK  status: ('A' for Active; 'I' for Inactive)
REMARK    1  A    between atoms: C08_8  and  C09_9
REMARK    2  A    between atoms: C11_11  and  C12_12
REMARK    3  A    between atoms: C12_12  and  N13_13
REMARK    4  A    between atoms: N13_13  and  S14_14
REMARK    5  A    between atoms: S14_14  and  C16_16
REMARK    6  A    between atoms: C22_22  and  N23_23
REMARK    7  A    between atoms: N23_23  and  C24_24
REMARK    8  A    between atoms: C27_27  and  N28_28
REMARK                            x       y       z     vdW  Elec       q    Type
REMARK                         _______ _______ _______ _____ _____    ______ ____
ROOT
ATOM      1 CL   UNL     1       5.599 -28.566  -9.589  0.00  0.00    -0.141 Cl
ATOM      2  C   UNL     1       4.663 -29.916  -9.091  0.00  0.00    +0.056 C 
ATOM      3  N   UNL     1       4.521 -30.332  -7.750  0.00  0.00    +0.459 NA
ATOM      4  C   UNL     1       5.188 -29.664  -6.582  0.00  0.00    -0.026 C 
ATOM      5  C   UNL     1       4.891 -30.200  -5.169  0.00  0.00    +0.093 C 
ATOM      6  N   UNL     1       4.056 -31.382  -5.040  0.00  0.00    +0.260 N 
ATOM      7  H   UNL     1       4.695 -32.097  -4.692  0.00  0.00    +0.205 HD
ATOM      8  H   UNL     1       3.264 -31.063  -4.481  0.00  0.00    +0.205 HD
ATOM      9  C   UNL     1       3.431 -32.007  -6.216  0.00  0.00    +0.196 C 
ATOM     37  C   UNL     1       3.678 -31.448  -7.589  0.00  0.00    +0.066 C 
ATOM     38  N   UNL     1       3.192 -31.844  -8.967  0.00  0.00    +0.219 N 
ATOM     39  H   UNL     1       2.174 -31.802  -9.014  0.00  0.00    +0.200 HD
ATOM     40  H   UNL     1       3.466 -32.803  -9.182  0.00  0.00    +0.200 HD
ATOM     41  C   UNL     1       3.810 -30.880  -9.957  0.00  0.00    +0.124 C 
ENDROOT
BRANCH   5  24
ATOM     24  C   UNL     1       5.528 -29.677  -3.925  0.00  0.00    -0.004 A 
ATOM     25  C   UNL     1       6.516 -28.442  -3.959  0.00  0.00    -0.012 A 
ATOM     26  C   UNL     1       7.108 -28.006  -2.761  0.00  0.00    -0.017 A 
ATOM     27  C   UNL     1       6.811 -28.690  -1.507  0.00  0.00    -0.016 A 
ATOM     28  C   UNL     1       5.876 -29.873  -1.465  0.00  0.00    -0.031 A 
ATOM     36  C   UNL     1       5.250 -30.333  -2.729  0.00  0.00    -0.003 A 
BRANCH  28  29
ATOM     29  C   UNL     1       5.543 -30.556  -0.173  0.00  0.00    +0.186 C 
BRANCH  29  30
ATOM     30  N   UNL     1       5.887 -31.985   0.036  0.00  0.00    -0.241 NA
ATOM     31  H   UNL     1       6.825 -32.378  -0.043  0.00  0.00    +0.170 HD
BRANCH  30  32
ATOM     32  S   UNL     1       4.502 -32.862   0.423  0.00  0.00    +0.038 S 
ATOM     33  O   UNL     1       3.353 -31.979   0.346  0.00  0.00    -0.156 OA
ATOM     34  C   UNL     1       4.622 -33.445   2.064  0.00  0.00    +0.218 C 
ATOM     35  O   UNL     1       4.354 -33.982  -0.499  0.00  0.00    -0.156 OA
ENDBRANCH  30  32
ENDBRANCH  29  30
ENDBRANCH  28  29
ENDBRANCH   5  24
BRANCH   9  10
ATOM     10  N   UNL     1       2.564 -33.111  -5.918  0.00  0.00    -0.295 N 
ATOM     11  H   UNL     1       2.341 -33.557  -6.808  0.00  0.00    +0.175 HD
BRANCH  10  12
ATOM     12  C   UNL     1       1.871 -33.861  -4.892  0.00  0.00    +0.007 C 
ATOM     13  C   UNL     1       0.825 -35.102  -5.212  0.00  0.00    -0.020 C 
ATOM     14  C   UNL     1       0.223 -35.736  -4.163  0.00  0.00    -0.034 C 
ATOM     15  C   UNL     1       0.522 -35.299  -2.724  0.00  0.00    -0.040 C 
ATOM     22  C   UNL     1       1.510 -34.121  -2.421  0.00  0.00    +0.023 C 
ATOM     23  C   UNL     1       2.146 -33.442  -3.528  0.00  0.00    -0.061 C 
BRANCH  15  16
ATOM     16  N   UNL     1      -0.132 -35.988  -1.599  0.00  0.00    +0.414 NA
ATOM     17  C   UNL     1      -1.060 -37.135  -1.923  0.00  0.00    -0.076 C 
ATOM     18  C   UNL     1      -1.043 -38.192  -0.828  0.00  0.00    +0.137 C 
ATOM     19  O   UNL     1       0.046 -37.993   0.107  0.00  0.00    -0.384 OA
ATOM     20  C   UNL     1       0.042 -36.698   0.766  0.00  0.00    +0.137 C 
ATOM     21  C   UNL     1       0.029 -35.515  -0.199  0.00  0.00    -0.076 C 
ENDBRANCH  15  16
ENDBRANCH  10  12
ENDBRANCH   9  10
TORSDOF 7
