REMARK  Name = 2wot_ligand
REMARK  13 active torsions:
REMARK  status: ('A' for Active; 'I' for Inactive)
REMARK    1  A    between atoms: C1_1  and  O2_2
REMARK    2  A    between atoms: O2_2  and  C3_3
REMARK    3  A    between atoms: C5_5  and  N6_6
REMARK    4  A    between atoms: N6_6  and  C7_7
REMARK    5  A    between atoms: C9_9  and  O10_10
REMARK    6  A    between atoms: O10_10  and  C11_11
REMARK    7  A    between atoms: C13_13  and  C14_14
REMARK    8  A    between atoms: C15_15  and  C16_16
REMARK    9  A    between atoms: C18_18  and  C19_19
REMARK   10  A    between atoms: C29_29  and  O30_30
REMARK   11  A    between atoms: O30_30  and  C31_31
REMARK   12  A    between atoms: C32_32  and  O33_33
REMARK   13  A    between atoms: O33_33  and  C34_34
REMARK                            x       y       z     vdW  Elec       q    Type
REMARK                         _______ _______ _______ _____ _____    ______ ____
ROOT
ATOM     14  C   UNL     1       3.280   7.153   2.449  0.00  0.00    +0.118 A 
ATOM     15  N   UNL     1       4.342   6.757   1.731  0.00  0.00    -0.297 NA
ATOM     16  C   UNL     1       5.531   7.300   2.029  0.00  0.00    +0.063 A 
ATOM     17  C   UNL     1       5.731   8.249   3.022  0.00  0.00    +0.041 A 
ATOM     18  C   UNL     1       4.598   8.653   3.744  0.00  0.00    +0.127 A 
ATOM     34  C   UNL     1       3.356   8.105   3.461  0.00  0.00    +0.073 A 
ENDROOT
BRANCH  14  12
ATOM     12  N   UNL     1       2.040   6.588   2.133  0.00  0.00    -0.273 N 
ATOM     13  H   UNL     1       1.927   6.252   1.166  0.00  0.00    +0.209 HD
BRANCH  12  11
ATOM      3  C   UNL     1      -1.473   6.100   3.180  0.00  0.00    +0.102 A 
ATOM      4  C   UNL     1      -1.370   6.083   4.579  0.00  0.00    +0.135 A 
ATOM      7  C   UNL     1      -0.111   6.223   5.176  0.00  0.00    +0.102 A 
ATOM     10  C   UNL     1       1.021   6.397   4.377  0.00  0.00    +0.005 A 
ATOM     11  C   UNL     1       0.925   6.425   2.985  0.00  0.00    +0.033 A 
ATOM     35  C   UNL     1      -0.327   6.274   2.396  0.00  0.00    +0.005 A 
BRANCH   3   2
ATOM      1  C   UNL     1      -2.888   5.958   1.251  0.00  0.00    +0.228 C 
ATOM      2  O   UNL     1      -2.731   5.944   2.675  0.00  0.00    -0.331 OA
ENDBRANCH   3   2
BRANCH   4   5
ATOM      5  O   UNL     1      -2.487   5.895   5.363  0.00  0.00    -0.337 OA
ATOM      6  C   UNL     1      -2.850   7.080   6.086  0.00  0.00    +0.221 C 
ENDBRANCH   4   5
BRANCH   7   8
ATOM      8  O   UNL     1      -0.031   6.201   6.544  0.00  0.00    -0.331 OA
ATOM      9  C   UNL     1       1.261   6.351   7.145  0.00  0.00    +0.228 C 
ENDBRANCH   7   8
ENDBRANCH  12  11
ENDBRANCH  14  12
BRANCH  18  19
ATOM     19  O   UNL     1       4.706   9.591   4.750  0.00  0.00    -0.246 OA
BRANCH  19  20
ATOM     20  C   UNL     1       5.916  10.187   4.992  0.00  0.00    +0.146 A 
ATOM     21  C   UNL     1       6.627   9.910   6.151  0.00  0.00    +0.089 A 
ATOM     28  N   UNL     1       7.798  10.511   6.406  0.00  0.00    -0.304 NA
ATOM     29  C   UNL     1       8.283  11.391   5.522  0.00  0.00    +0.018 A 
ATOM     30  C   UNL     1       9.611  12.010   5.897  0.00  0.00    +0.095 C 
ATOM     31  C   UNL     1       7.621  11.731   4.332  0.00  0.00    -0.021 A 
ATOM     32  C   UNL     1       8.187  12.733   3.344  0.00  0.00    +0.091 C 
ATOM     33  C   UNL     1       6.410  11.108   4.088  0.00  0.00    +0.050 A 
BRANCH  21  22
ATOM     22  C   UNL     1       6.136   8.974   7.207  0.00  0.00    +0.060 A 
ATOM     23  N   UNL     1       6.373   9.333   8.478  0.00  0.00    -0.294 NA
ATOM     24  C   UNL     1       5.937   8.532   9.441  0.00  0.00    +0.091 A 
ATOM     25  C   UNL     1       5.241   7.356   9.211  0.00  0.00    +0.034 A 
ATOM     26  C   UNL     1       4.979   6.985   7.897  0.00  0.00    +0.030 A 
ATOM     27  C   UNL     1       5.437   7.809   6.878  0.00  0.00    +0.042 A 
ENDBRANCH  21  22
ENDBRANCH  19  20
ENDBRANCH  18  19
TORSDOF 8
