REMARK  Name = 4QPA
REMARK  4 active torsions:
REMARK  status: ('A' for Active; 'I' for Inactive)
REMARK    1  A    between atoms: C_1  and  C_4
REMARK    2  A    between atoms: C_4  and  N_16
REMARK    3  A    between atoms: C_5  and  C_7
REMARK    4  A    between atoms: C_9  and  C_24
REMARK                            x       y       z     vdW  Elec       q    Type
REMARK                         _______ _______ _______ _____ _____    ______ ____
ROOT
ATOM     11  C   UNL     1       3.315 -54.145 -60.710  0.00  0.00    +0.032 A 
ATOM     12  C   UNL     1       4.382 -53.637 -61.584  0.00  0.00    +0.118 A 
ATOM     13  N   UNL     1       4.960 -52.453 -61.735  0.00  0.00    -0.241 NA
ATOM     14  C   UNL     1       5.927 -52.306 -62.632  0.00  0.00    +0.090 A 
ATOM     21  C   UNL     1       6.336 -53.390 -63.413  0.00  0.00    +0.141 A 
ATOM     22  N   UNL     1       5.766 -54.569 -63.267  0.00  0.00    -0.232 NA
ATOM     23  C   UNL     1       4.797 -54.733 -62.374  0.00  0.00    +0.179 A 
ATOM     24  N   UNL     1       4.034 -55.814 -62.004  0.00  0.00    -0.234 NA
ATOM     25  C   UNL     1       3.156 -55.454 -61.019  0.00  0.00    +0.124 A 
ENDROOT
BRANCH  14  15
ATOM     15  C   UNL     1       6.575 -50.983 -62.804  0.00  0.00    +0.005 A 
ATOM     16  C   UNL     1       7.585 -50.799 -63.753  0.00  0.00    +0.029 A 
ATOM     17  C   UNL     1       8.160 -49.552 -63.876  0.00  0.00    +0.111 A 
ATOM     18  N   UNL     1       7.768 -48.546 -63.117  0.00  0.00    -0.263 NA
ATOM     19  C   UNL     1       6.819 -48.677 -62.210  0.00  0.00    +0.111 A 
ATOM     20  C   UNL     1       6.191 -49.890 -62.019  0.00  0.00    +0.029 A 
ENDBRANCH  14  15
BRANCH  11   9
ATOM      7  N   UNL     1       1.944 -51.842 -58.256  0.00  0.00    -0.267 N 
ATOM      8  C   UNL     1       2.934 -52.212 -59.098  0.00  0.00    +0.117 A 
ATOM      9  C   UNL     1       2.546 -53.372 -59.700  0.00  0.00    +0.023 A 
ATOM     10  C   UNL     1       1.277 -53.712 -59.192  0.00  0.00    +0.143 A 
ATOM     26  N   UNL     1       0.924 -52.796 -58.331  0.00  0.00    -0.179 NA
BRANCH   7   6
ATOM      6  C   UNL     1       1.942 -50.654 -57.400  0.00  0.00    +0.178 C 
BRANCH   6   1
ATOM      1  C   UNL     1       2.838 -50.947 -56.227  0.00  0.00    -0.026 A 
ATOM      2  C   UNL     1       2.321 -51.560 -55.102  0.00  0.00    +0.005 A 
ATOM      3  C   UNL     1       3.144 -51.836 -54.027  0.00  0.00    +0.000 A 
ATOM      4  C   UNL     1       4.484 -51.504 -54.083  0.00  0.00    +0.000 A 
ATOM      5  C   UNL     1       5.002 -50.893 -55.210  0.00  0.00    +0.000 A 
ATOM     27  C   UNL     1       4.179 -50.616 -56.285  0.00  0.00    +0.005 A 
ENDBRANCH   6   1
ENDBRANCH   7   6
ENDBRANCH  11   9
TORSDOF 4
