REMARK  Name = 5AAC
REMARK  6 active torsions:
REMARK  status: ('A' for Active; 'I' for Inactive)
REMARK    1  A    between atoms: C_7  and  C_10
REMARK    2  A    between atoms: C_10  and  C_11
REMARK    3  A    between atoms: C_10  and  O_12
REMARK    4  A    between atoms: O_12  and  C_13
REMARK    5  A    between atoms: C_19  and  C_20
REMARK    6  A    between atoms: N_23  and  C_25
REMARK                            x       y       z     vdW  Elec       q    Type
REMARK                         _______ _______ _______ _____ _____    ______ ____
ROOT
ATOM      6  C   UNL     1      29.941  44.306   9.064  0.00  0.00    +0.161 A 
ATOM      7  C   UNL     1      28.947  44.110  10.087  0.00  0.00    +0.158 A 
ATOM      8  N   UNL     1      27.951  44.992  10.359  0.00  0.00    -0.236 NA
ATOM      9  C   UNL     1      27.880  46.139   9.626  0.00  0.00    +0.121 A 
ATOM     10  C   UNL     1      28.793  46.475   8.580  0.00  0.00    +0.007 A 
ATOM     23  N   UNL     1      28.982  42.936  10.870  0.00  0.00    -0.340 N 
ATOM     24  H   UNL     1      28.248  42.780  11.633  0.00  0.00    +0.144 HD
ATOM     25  H   UNL     1      29.742  42.202  10.701  0.00  0.00    +0.144 HD
ATOM     26  C   UNL     1      29.832  45.531   8.307  0.00  0.00    +0.059 A 
ENDROOT
BRANCH  10  11
ATOM     11  C   UNL     1      28.677  47.768   7.789  0.00  0.00    +0.021 A 
ATOM     12  C   UNL     1      27.539  48.545   7.599  0.00  0.00    +0.117 A 
ATOM     13  N   UNL     1      27.984  49.617   6.798  0.00  0.00    -0.268 N 
ATOM     21  N   UNL     1      29.239  49.532   6.519  0.00  0.00    -0.179 NA
ATOM     22  C   UNL     1      29.735  48.475   7.059  0.00  0.00    +0.143 A 
BRANCH  13  14
ATOM     14  C   UNL     1      27.142  50.736   6.311  0.00  0.00    +0.110 C 
ATOM     15  C   UNL     1      25.831  50.209   5.675  0.00  0.00    +0.042 C 
ATOM     16  C   UNL     1      24.980  51.403   5.187  0.00  0.00    +0.083 C 
ATOM     17  N   UNL     1      24.706  52.381   6.280  0.00  0.00    -0.316 NA
ATOM     18  H   UNL     1      24.185  53.219   5.866  0.00  0.00    +0.122 HD
ATOM     19  C   UNL     1      25.951  52.872   6.940  0.00  0.00    +0.083 C 
ATOM     20  C   UNL     1      26.831  51.715   7.467  0.00  0.00    +0.042 C 
ENDBRANCH  13  14
ENDBRANCH  10  11
BRANCH   6   5
ATOM      5  O   UNL     1      30.919  43.312   8.862  0.00  0.00    -0.481 OA
BRANCH   5   4
ATOM      4  C   UNL     1      32.229  43.517   8.215  0.00  0.00    +0.204 C 
ATOM     27  C   UNL     1      32.900  42.133   8.162  0.00  0.00    +0.057 C 
BRANCH   4   3
ATOM      1 CL   UNL     1      33.086  46.105   6.525  0.00  0.00    -0.083 Cl
ATOM      2  C   UNL     1      33.554  45.779   8.174  0.00  0.00    +0.049 A 
ATOM      3  C   UNL     1      33.142  44.586   8.915  0.00  0.00    +0.032 A 
ATOM     28  C   UNL     1      33.610  44.439  10.306  0.00  0.00    +0.084 A 
ATOM     29 CL   UNL     1      33.197  43.063  11.319  0.00  0.00    -0.080 Cl
ATOM     30  C   UNL     1      34.449  45.455  10.893  0.00  0.00    +0.142 A 
ATOM     31  F   UNL     1      34.892  45.350  12.156  0.00  0.00    -0.204 F 
ATOM     32  C   UNL     1      34.824  46.597  10.136  0.00  0.00    +0.041 A 
ATOM     33  C   UNL     1      34.383  46.756   8.798  0.00  0.00    +0.023 A 
ENDBRANCH   4   3
ENDBRANCH   5   4
ENDBRANCH   6   5
TORSDOF 5
