REMARK  Name = 5MAF
REMARK  11 active torsions:
REMARK  status: ('A' for Active; 'I' for Inactive)
REMARK    1  A    between atoms: C_1  and  C_3
REMARK    2  A    between atoms: C_3  and  C_7
REMARK    3  A    between atoms: C_10  and  N_34
REMARK    4  A    between atoms: C_11  and  C_15
REMARK    5  A    between atoms: C_15  and  O_18
REMARK    6  A    between atoms: O_18  and  C_38
REMARK    7  A    between atoms: C_20  and  N_32
REMARK    8  A    between atoms: C_21  and  C_23
REMARK    9  A    between atoms: C_22  and  N_32
REMARK   10  A    between atoms: C_23  and  N_30
REMARK   11  A    between atoms: C_28  and  N_31
REMARK                            x       y       z     vdW  Elec       q    Type
REMARK                         _______ _______ _______ _____ _____    ______ ____
ROOT
ATOM     15  C   UNL     1      15.140   9.064  94.799  0.00  0.00    +0.084 C 
ATOM     16  N   UNL     1      15.088   8.767  93.452  0.00  0.00    -0.247 NA
ENDROOT
BRANCH  15   1
ATOM      1  C   UNL     1      15.728   8.166  95.666  0.00  0.00    +0.072 C 
ATOM      2  C   UNL     1      16.356   7.040  95.285  0.00  0.00    +0.251 C 
ATOM      3  O   UNL     1      16.527   6.649  94.128  0.00  0.00    -0.270 OA
ATOM      4  N   UNL     1      16.792   6.368  96.332  0.00  0.00    -0.281 N 
ATOM      5  H   UNL     1      17.328   5.442  96.310  0.00  0.00    +0.155 HD
ATOM      6  C   UNL     1      16.447   7.046  97.417  0.00  0.00    +0.039 C 
ATOM      7  C   UNL     1      16.681   6.743  98.705  0.00  0.00    +0.020 C 
ATOM      8  C   UNL     1      16.246   7.571  99.744  0.00  0.00    +0.129 C 
ATOM     13  C   UNL     1      15.558   8.719  99.379  0.00  0.00    -0.003 C 
ATOM     14  C   UNL     1      15.341   8.986  98.027  0.00  0.00    +0.008 C 
ATOM     41  C   UNL     1      15.779   8.164  97.036  0.00  0.00    +0.010 C 
BRANCH   8   9
ATOM      9  C   UNL     1      16.463   7.262 101.094  0.00  0.00    +0.323 C 
ATOM     10  O   UNL     1      16.529   8.147 101.945  0.00  0.00    -0.250 OA
BRANCH   9  11
ATOM     11  O   UNL     1      16.494   5.919 101.367  0.00  0.00    -0.467 OA
ATOM     12  C   UNL     1      16.690   5.465 102.718  0.00  0.00    +0.280 C 
ENDBRANCH   9  11
ENDBRANCH   8   9
ENDBRANCH  15   1
BRANCH  16  17
ATOM     17  C   UNL     1      14.489   9.456  92.428  0.00  0.00    +0.065 A 
ATOM     18  C   UNL     1      14.181  10.832  92.314  0.00  0.00    +0.029 A 
ATOM     19  C   UNL     1      13.573  11.338  91.150  0.00  0.00    +0.025 A 
ATOM     20  C   UNL     1      13.282  10.495  90.072  0.00  0.00    +0.036 A 
ATOM     33  C   UNL     1      13.576   9.141  90.173  0.00  0.00    +0.025 A 
ATOM     34  C   UNL     1      14.174   8.645  91.323  0.00  0.00    +0.029 A 
BRANCH  20  21
ATOM     21  N   UNL     1      12.689  10.907  88.941  0.00  0.00    -0.273 N 
ATOM     22  C   UNL     1      11.233  10.672  88.830  0.00  0.00    +0.138 C 
ATOM     23  C   UNL     1      13.348  11.404  87.845  0.00  0.00    +0.234 C 
ATOM     24  O   UNL     1      12.732  11.713  86.826  0.00  0.00    -0.274 OA
BRANCH  23  25
ATOM     25  C   UNL     1      14.884  11.684  87.893  0.00  0.00    +0.181 C 
BRANCH  25  26
ATOM     26  N   UNL     1      15.444  11.356  86.561  0.00  0.00    -0.292 NA
ATOM     27  C   UNL     1      16.807  10.750  86.675  0.00  0.00    +0.100 C 
ATOM     28  C   UNL     1      17.256  10.359  85.275  0.00  0.00    +0.099 C 
ATOM     29  N   UNL     1      17.324  11.590  84.477  0.00  0.00    -0.303 NA
ATOM     30  C   UNL     1      17.967  11.264  83.174  0.00  0.00    +0.105 C 
ATOM     31  C   UNL     1      15.986  12.236  84.319  0.00  0.00    +0.099 C 
ATOM     32  C   UNL     1      15.507  12.577  85.709  0.00  0.00    +0.100 C 
ENDBRANCH  25  26
ENDBRANCH  23  25
ENDBRANCH  20  21
ENDBRANCH  16  17
BRANCH  15  35
ATOM     35  C   UNL     1      14.567  10.221  95.314  0.00  0.00    +0.001 A 
ATOM     36  C   UNL     1      13.181  10.336  95.445  0.00  0.00    +0.010 A 
ATOM     37  C   UNL     1      12.629  11.502  95.980  0.00  0.00    +0.001 A 
ATOM     38  C   UNL     1      13.459  12.544  96.394  0.00  0.00    +0.000 A 
ATOM     39  C   UNL     1      14.844  12.420  96.272  0.00  0.00    +0.001 A 
ATOM     40  C   UNL     1      15.399  11.264  95.726  0.00  0.00    +0.010 A 
ENDBRANCH  15  35
TORSDOF 8
