REMARK  Name = 4rrv_ligand
REMARK  38 active torsions:
REMARK  status: ('A' for Active; 'I' for Inactive)
REMARK    1  A    between atoms: N_1  and  CA_2
REMARK    2  A    between atoms: CA_2  and  C_3
REMARK    3  A    between atoms: CA_2  and  CB_5
REMARK    4  A    between atoms: CB_5  and  CG_6
REMARK    5  A    between atoms: CG_6  and  SD_7
REMARK    6  A    between atoms: SD_7  and  CE_8
REMARK    7  A    between atoms: N_9  and  CA_10
REMARK    8  A    between atoms: CA_10  and  C_11
REMARK    9  A    between atoms: CA_10  and  CB_13
REMARK   10  A    between atoms: CB_13  and  CG_14
REMARK   11  A    between atoms: N_20  and  CA_21
REMARK   12  A    between atoms: CA_21  and  C_22
REMARK   13  A    between atoms: CA_21  and  CB_24
REMARK   14  A    between atoms: N_25  and  CA_26
REMARK   15  A    between atoms: CA_26  and  C_27
REMARK   16  A    between atoms: CA_26  and  CB_29
REMARK   17  A    between atoms: N_30  and  CA_31
REMARK   18  A    between atoms: CA_31  and  C_32
REMARK   19  A    between atoms: CA_31  and  CB_34
REMARK   20  A    between atoms: CB_34  and  CG_35
REMARK   21  A    between atoms: N_41  and  CA_42
REMARK   22  A    between atoms: CA_42  and  C_43
REMARK   23  A    between atoms: CA_42  and  CB_45
REMARK   24  A    between atoms: CB_45  and  CG_46
REMARK   25  A    between atoms: N_49  and  CA_50
REMARK   26  A    between atoms: CA_50  and  C_51
REMARK   27  A    between atoms: CA_50  and  CB_53
REMARK   28  A    between atoms: CB_53  and  CG_54
REMARK   29  A    between atoms: CZ_59  and  OH_60
REMARK   30  A    between atoms: N_61  and  CA_62
REMARK   31  A    between atoms: CA_62  and  C_63
REMARK   32  A    between atoms: CA_62  and  CB_65
REMARK   33  A    between atoms: CB_65  and  CG1_66
REMARK   34  A    between atoms: CB_65  and  CG2_67
REMARK   35  A    between atoms: CG1_66  and  CD1_68
REMARK   36  A    between atoms: N_69  and  CA_70
REMARK   37  A    between atoms: CA_70  and  C_71
REMARK   38  A    between atoms: CA_70  and  CB_73
REMARK                            x       y       z     vdW  Elec       q    Type
REMARK                         _______ _______ _______ _____ _____    ______ ____
ROOT
ATOM     34  CA  PHE A   5      -9.168  16.543  -7.837  0.00  0.00    +0.223 C 
ENDROOT
BRANCH  34  32
ATOM     31  C   ALA A   4      -8.818  18.505  -6.470  0.00  0.00    +0.204 C 
ATOM     32  N   PHE A   5      -8.822  17.948  -7.676  0.00  0.00    -0.262 N 
ATOM     33  H   PHE A   5      -8.586  18.497  -8.478  0.00  0.00    +0.189 HD
ATOM     83  O   ALA A   4      -8.981  17.855  -5.436  0.00  0.00    -0.394 OA
BRANCH  31  29
ATOM     29  CA  ALA A   4      -8.593  20.007  -6.415  0.00  0.00    +0.208 C 
ATOM     30  CB  ALA A   4      -9.374  20.599  -5.241  0.00  0.00    +0.059 C 
BRANCH  29  27
ATOM     26  C   ALA A   3      -8.136  21.089  -8.552  0.00  0.00    +0.204 C 
ATOM     27  N   ALA A   4      -9.012  20.629  -7.665  0.00  0.00    -0.264 N 
ATOM     28  H   ALA A   4      -9.989  20.712  -7.861  0.00  0.00    +0.188 HD
ATOM     84  O   ALA A   3      -6.921  20.969  -8.417  0.00  0.00    -0.394 OA
BRANCH  26  24
ATOM     24  CA  ALA A   3      -8.719  21.783  -9.778  0.00  0.00    +0.208 C 
ATOM     25  CB  ALA A   3      -8.793  23.294  -9.537  0.00  0.00    +0.059 C 
BRANCH  24  22
ATOM     21  C   PHE A   2     -10.216  20.025 -10.550  0.00  0.00    +0.206 C 
ATOM     22  N   ALA A   3     -10.039  21.264 -10.103  0.00  0.00    -0.264 N 
ATOM     23  H   ALA A   3     -10.836  21.857  -9.987  0.00  0.00    +0.188 HD
ATOM     85  O   PHE A   2      -9.299  19.211 -10.640  0.00  0.00    -0.394 OA
BRANCH  21  13
ATOM     13  CA  PHE A   2     -11.651  19.645 -10.929  0.00  0.00    +0.223 C 
BRANCH  13  11
ATOM     10  C   MET A   1     -12.134  21.618 -12.309  0.00  0.00    +0.227 C 
ATOM     11  N   PHE A   2     -12.439  20.832 -11.275  0.00  0.00    -0.259 N 
ATOM     12  H   PHE A   2     -13.235  21.061 -10.715  0.00  0.00    +0.189 HD
ATOM     86  O   MET A   1     -11.209  21.376 -13.087  0.00  0.00    -0.391 OA
BRANCH  10   5
ATOM      5  CA  MET A   1     -12.993  22.871 -12.501  0.00  0.00    +0.176 C 
BRANCH   5   1
ATOM      1  N   MET A   1     -13.096  23.186 -13.917  0.00  0.00    +0.238 N 
ATOM      2  H1  MET A   1     -12.175  23.353 -14.292  0.00  0.00    +0.202 HD
ATOM      3  H2  MET A   1     -13.522  22.413 -14.403  0.00  0.00    +0.202 HD
ATOM      4  H3  MET A   1     -13.662  24.011 -14.037  0.00  0.00    +0.202 HD
ENDBRANCH   5   1
BRANCH   5   6
ATOM      6  CB  MET A   1     -14.388  22.672 -11.907  0.00  0.00    +0.088 C 
BRANCH   6   7
ATOM      7  CG  MET A   1     -15.148  21.478 -12.470  0.00  0.00    +0.077 C 
BRANCH   7   8
ATOM      8  SD  MET A   1     -16.838  21.895 -12.947  0.00  0.00    -0.164 S 
ATOM      9  CE  MET A   1     -16.526  23.010 -14.317  0.00  0.00    +0.084 C 
ENDBRANCH   7   8
ENDBRANCH   6   7
ENDBRANCH   5   6
ENDBRANCH  10   5
ENDBRANCH  13  11
BRANCH  13  14
ATOM     14  CB  PHE A   2     -11.658  18.622 -12.073  0.00  0.00    +0.116 C 
BRANCH  14  15
ATOM     15  CG  PHE A   2     -13.031  18.265 -12.557  0.00  0.00    -0.039 A 
ATOM     16  CD2 PHE A   2     -13.445  18.605 -13.831  0.00  0.00    -0.004 A 
ATOM     17  CE2 PHE A   2     -14.710  18.274 -14.272  0.00  0.00    -0.009 A 
ATOM     18  CZ  PHE A   2     -15.569  17.591 -13.436  0.00  0.00    -0.013 A 
ATOM     19  CE1 PHE A   2     -15.163  17.247 -12.166  0.00  0.00    -0.009 A 
ATOM     20  CD1 PHE A   2     -13.903  17.580 -11.736  0.00  0.00    -0.004 A 
ENDBRANCH  14  15
ENDBRANCH  13  14
ENDBRANCH  21  13
ENDBRANCH  24  22
ENDBRANCH  26  24
ENDBRANCH  29  27
ENDBRANCH  31  29
ENDBRANCH  34  32
BRANCH  34  42
ATOM     42  C   PHE A   5      -7.958  15.618  -7.728  0.00  0.00    +0.206 C 
ATOM     43  N   ASP A   6      -6.845  16.019  -8.331  0.00  0.00    -0.262 N 
ATOM     44  H   ASP A   6      -6.815  16.922  -8.759  0.00  0.00    +0.188 HD
ATOM     82  O   PHE A   5      -8.032  14.559  -7.101  0.00  0.00    -0.394 OA
BRANCH  43  45
ATOM     45  CA  ASP A   6      -5.664  15.161  -8.378  0.00  0.00    +0.224 C 
BRANCH  45  50
ATOM     50  C   ASP A   6      -5.132  14.850  -6.979  0.00  0.00    +0.206 C 
ATOM     51  N   TYR A   7      -4.676  13.614  -6.804  0.00  0.00    -0.262 N 
ATOM     52  H   TYR A   7      -4.518  13.042  -7.609  0.00  0.00    +0.189 HD
ATOM     81  O   ASP A   6      -5.135  15.704  -6.089  0.00  0.00    -0.394 OA
BRANCH  51  53
ATOM     53  CA  TYR A   7      -4.398  13.060  -5.489  0.00  0.00    +0.221 C 
BRANCH  53  63
ATOM     63  C   TYR A   7      -3.357  11.960  -5.607  0.00  0.00    +0.206 C 
ATOM     64  N   ILE A   8      -2.441  11.915  -4.650  0.00  0.00    -0.263 N 
ATOM     65  H   ILE A   8      -2.369  12.675  -4.004  0.00  0.00    +0.188 HD
ATOM     80  O   TYR A   7      -3.372  11.181  -6.550  0.00  0.00    -0.394 OA
BRANCH  64  66
ATOM     66  CA  ILE A   8      -1.541  10.785  -4.522  0.00  0.00    +0.214 C 
BRANCH  66  71
ATOM     71  C   ILE A   8      -1.534  10.428  -3.054  0.00  0.00    +0.204 C 
ATOM     72  N   ALA A   9      -1.898   9.189  -2.754  0.00  0.00    -0.267 N 
ATOM     73  H   ALA A   9      -2.392   8.640  -3.429  0.00  0.00    +0.188 HD
ATOM     79  O   ILE A   8      -1.246  11.279  -2.203  0.00  0.00    -0.394 OA
BRANCH  72  74
ATOM     74  CA  ALA A   9      -1.588   8.625  -1.462  0.00  0.00    +0.195 C 
ATOM     75  CB  ALA A   9      -2.020   7.159  -1.383  0.00  0.00    +0.054 C 
BRANCH  74  76
ATOM     76  C   ALA A   9      -0.073   8.768  -1.356  0.00  0.00    +0.215 C 
ATOM     77  OXT ALA A   9       0.429   9.917  -1.234  0.00  0.00    -0.412 OA
ATOM     78  O   ALA A   9       0.666   7.794  -1.387  0.00  0.00    -0.412 OA
ENDBRANCH  74  76
ENDBRANCH  72  74
ENDBRANCH  66  71
BRANCH  66  67
ATOM     67  CB  ILE A   8      -0.092  11.134  -4.944  0.00  0.00    +0.031 C 
ATOM     68  CG2 ILE A   8       0.827   9.926  -4.745  0.00  0.00    +0.012 C 
BRANCH  67  69
ATOM     69  CG1 ILE A   8      -0.043  11.656  -6.391  0.00  0.00    +0.004 C 
ATOM     70  CD1 ILE A   8      -0.007  10.575  -7.476  0.00  0.00    +0.004 C 
ENDBRANCH  67  69
ENDBRANCH  66  67
ENDBRANCH  64  66
ENDBRANCH  53  63
BRANCH  53  54
ATOM     54  CB  TYR A   7      -5.692  12.466  -4.897  0.00  0.00    +0.107 C 
BRANCH  54  55
ATOM     55  CG  TYR A   7      -5.503  11.714  -3.606  0.00  0.00    -0.049 A 
ATOM     56  CD2 TYR A   7      -5.678  10.332  -3.552  0.00  0.00    -0.016 A 
ATOM     57  CE2 TYR A   7      -5.505   9.638  -2.376  0.00  0.00    +0.013 A 
ATOM     58  CZ  TYR A   7      -5.158  10.324  -1.229  0.00  0.00    +0.081 A 
ATOM     61  CE1 TYR A   7      -4.990  11.691  -1.253  0.00  0.00    +0.013 A 
ATOM     62  CD1 TYR A   7      -5.159  12.379  -2.439  0.00  0.00    -0.016 A 
BRANCH  58  59
ATOM     59  OH  TYR A   7      -4.994   9.641  -0.048  0.00  0.00    -0.338 OA
ATOM     60  HH  TYR A   7      -5.807   9.205   0.180  0.00  0.00    +0.246 HD
ENDBRANCH  58  59
ENDBRANCH  54  55
ENDBRANCH  53  54
ENDBRANCH  51  53
ENDBRANCH  45  50
BRANCH  45  46
ATOM     46  CB  ASP A   6      -4.585  15.787  -9.257  0.00  0.00    +0.136 C 
BRANCH  46  47
ATOM     47  CG  ASP A   6      -5.057  15.996 -10.682  0.00  0.00    +0.039 C 
ATOM     48  OD2 ASP A   6      -4.302  16.580 -11.480  0.00  0.00    -0.569 OA
ATOM     49  OD1 ASP A   6      -6.190  15.572 -11.002  0.00  0.00    -0.569 OA
ENDBRANCH  46  47
ENDBRANCH  45  46
ENDBRANCH  43  45
ENDBRANCH  34  42
BRANCH  34  35
ATOM     35  CB  PHE A   5      -9.882  16.291  -9.163  0.00  0.00    +0.116 C 
BRANCH  35  36
ATOM     36  CG  PHE A   5     -10.245  14.861  -9.358  0.00  0.00    -0.039 A 
ATOM     37  CD2 PHE A   5      -9.504  14.057 -10.198  0.00  0.00    -0.004 A 
ATOM     38  CE2 PHE A   5      -9.827  12.725 -10.355  0.00  0.00    -0.009 A 
ATOM     39  CZ  PHE A   5     -10.879  12.183  -9.651  0.00  0.00    -0.013 A 
ATOM     40  CE1 PHE A   5     -11.621  12.972  -8.806  0.00  0.00    -0.009 A 
ATOM     41  CD1 PHE A   5     -11.304  14.300  -8.656  0.00  0.00    -0.004 A 
ENDBRANCH  35  36
ENDBRANCH  34  35
TORSDOF 32
