REMARK  Name = 4an3_ligand
REMARK  9 active torsions:
REMARK  status: ('A' for Active; 'I' for Inactive)
REMARK    1  A    between atoms: C13_1  and  N9_7
REMARK    2  A    between atoms: N9_7  and  C5_8
REMARK    3  A    between atoms: C6_9  and  C10_14
REMARK    4  A    between atoms: N12_15  and  O21_17
REMARK    5  A    between atoms: O21_17  and  C22_18
REMARK    6  A    between atoms: C22_18  and  C25_22
REMARK    7  A    between atoms: C24_19  and  O23_21
REMARK    8  A    between atoms: C24_19  and  C25_22
REMARK    9  A    between atoms: O26_20  and  C25_22
REMARK                            x       y       z     vdW  Elec       q    Type
REMARK                         _______ _______ _______ _____ _____    ______ ____
ROOT
ATOM      4  C   UNL     1       5.860  34.217   4.145  0.00  0.00    +0.112 A 
ATOM      5  C   UNL     1       6.803  34.055   3.129  0.00  0.00    +0.191 A 
ATOM      6  F   UNL     1       7.825  34.909   3.017  0.00  0.00    -0.191 F 
ATOM      7  C   UNL     1       6.761  33.020   2.227  0.00  0.00    +0.161 A 
ATOM      8  F   UNL     1       7.756  32.983   1.306  0.00  0.00    -0.184 F 
ATOM      9  C   UNL     1       5.704  32.104   2.272  0.00  0.00    +0.014 A 
ATOM     10  C   UNL     1       4.728  32.234   3.285  0.00  0.00    +0.002 A 
ATOM     11  C   UNL     1       4.815  33.280   4.230  0.00  0.00    +0.068 A 
ENDROOT
BRANCH  11  12
ATOM     12  C   UNL     1       3.790  33.349   5.294  0.00  0.00    +0.217 C 
ATOM     13  O   UNL     1       4.146  33.808   6.381  0.00  0.00    -0.394 OA
ATOM     14  N   UNL     1       2.672  32.627   5.234  0.00  0.00    -0.163 N 
ATOM     15  H   UNL     1       2.358  32.225   4.351  0.00  0.00    +0.221 HD
BRANCH  14  16
ATOM     16  O   UNL     1       1.931  32.431   6.420  0.00  0.00    -0.255 OA
BRANCH  16  17
ATOM     17  C   UNL     1       0.731  31.642   6.505  0.00  0.00    +0.230 C 
BRANCH  17  18
ATOM     18  C   UNL     1       0.574  31.013   7.902  0.00  0.00    +0.168 C 
BRANCH  18  19
ATOM     19  O   UNL     1       0.060  29.671   7.838  0.00  0.00    -0.387 OA
ATOM     20  H   UNL     1      -0.770  29.670   7.356  0.00  0.00    +0.210 HD
ENDBRANCH  18  19
BRANCH  18  21
ATOM     21  C   UNL     1       1.889  31.065   8.656  0.00  0.00    +0.189 C 
BRANCH  21  22
ATOM     22  O   UNL     1       1.854  32.407   9.113  0.00  0.00    -0.392 OA
ATOM     23  H   UNL     1       1.811  33.000   8.359  0.00  0.00    +0.209 HD
ENDBRANCH  21  22
ENDBRANCH  18  21
ENDBRANCH  17  18
ENDBRANCH  16  17
ENDBRANCH  14  16
ENDBRANCH  11  12
BRANCH   4   2
ATOM      2  N   UNL     1       6.059  35.260   5.013  0.00  0.00    -0.270 N 
ATOM      3  H   UNL     1       6.096  35.008   6.001  0.00  0.00    +0.209 HD
BRANCH   2   1
ATOM      1  C   UNL     1       6.215  36.594   4.737  0.00  0.00    +0.096 A 
ATOM     24  C   UNL     1       6.088  37.505   5.762  0.00  0.00    +0.156 A 
ATOM     25  F   UNL     1       5.847  37.086   7.034  0.00  0.00    -0.191 F 
ATOM     26  C   UNL     1       6.199  38.858   5.530  0.00  0.00    +0.032 A 
ATOM     27  C   UNL     1       6.460  39.362   4.238  0.00  0.00    -0.005 A 
ATOM     28  I   UNL     1       6.661  41.476   3.996  0.00  0.00    -0.061 I 
ATOM     29  C   UNL     1       6.559  38.407   3.216  0.00  0.00    -0.007 A 
ATOM     30  C   UNL     1       6.451  37.064   3.427  0.00  0.00    +0.014 A 
ENDBRANCH   2   1
ENDBRANCH   4   2
TORSDOF 9
