REMARK  Name = 5NHV
REMARK  2 active torsions:
REMARK  status: ('A' for Active; 'I' for Inactive)
REMARK    1  A    between atoms: C_3  and  C_18
REMARK    2  A    between atoms: C_8  and  N_22
REMARK                            x       y       z     vdW  Elec       q    Type
REMARK                         _______ _______ _______ _____ _____    ______ ____
ROOT
ATOM      1  C   UNL     1     -18.150  10.565  40.484  0.00  0.00    +0.088 A 
ATOM      2  N   UNL     1     -19.065  11.308  41.134  0.00  0.00    -0.331 N 
ATOM      3  H   UNL     1     -20.091  11.013  41.209  0.00  0.00    +0.168 HD
ATOM      4  C   UNL     1     -18.603  12.447  41.683  0.00  0.00    +0.224 A 
ATOM      5  N   UNL     1     -19.483  13.203  42.363  0.00  0.00    -0.247 NA
ATOM     12  N   UNL     1     -17.322  12.876  41.655  0.00  0.00    -0.212 NA
ATOM     13  C   UNL     1     -16.445  12.113  40.991  0.00  0.00    +0.078 A 
ATOM     25  C   UNL     1     -16.825  10.937  40.352  0.00  0.00    +0.046 A 
ENDROOT
BRANCH  13  14
ATOM     14  C   UNL     1     -15.046  12.582  41.001  0.00  0.00    +0.019 A 
ATOM     15  C   UNL     1     -13.872  11.980  40.391  0.00  0.00    +0.042 A 
ATOM     16  C   UNL     1     -12.806  12.816  40.638  0.00  0.00    +0.105 A 
ATOM     17  N   UNL     1     -13.252  13.861  41.427  0.00  0.00    -0.341 N 
ATOM     18  C   UNL     1     -12.384  14.939  41.921  0.00  0.00    +0.140 C 
ATOM     19  C   UNL     1     -10.941  14.484  41.935  0.00  0.00    +0.126 C 
ATOM     20  N   UNL     1     -10.599  13.671  40.754  0.00  0.00    -0.308 N 
ATOM     21  H   UNL     1      -9.669  13.860  40.260  0.00  0.00    +0.149 HD
ATOM     22  C   UNL     1     -11.392  12.708  40.268  0.00  0.00    +0.261 C 
ATOM     23  O   UNL     1     -10.950  11.759  39.625  0.00  0.00    -0.269 OA
ATOM     24  C   UNL     1     -14.584  13.718  41.625  0.00  0.00    +0.096 A 
ENDBRANCH  13  14
BRANCH   5   6
ATOM      6  C   UNL     1     -19.214  14.478  43.038  0.00  0.00    +0.113 C 
ATOM      7  C   UNL     1     -20.509  15.225  43.341  0.00  0.00    +0.055 C 
ATOM      8  C   UNL     1     -20.190  16.516  44.065  0.00  0.00    +0.162 C 
ATOM      9  O   UNL     1     -19.436  16.279  45.263  0.00  0.00    -0.380 OA
ATOM     10  C   UNL     1     -18.183  15.642  44.970  0.00  0.00    +0.162 C 
ATOM     11  C   UNL     1     -18.389  14.293  44.312  0.00  0.00    +0.055 C 
ENDBRANCH   5   6
TORSDOF 2
