REMARK  Name = 5L4
REMARK  6 active torsions:
REMARK  status: ('A' for Active; 'I' for Inactive)
REMARK    1  A    between atoms: C18_2  and  N10_23
REMARK    2  A    between atoms: C17_3  and  C24_10
REMARK    3  A    between atoms: C17_3  and  C14_24
REMARK    4  A    between atoms: C23_9  and  N26_27
REMARK    5  A    between atoms: C11_11  and  C2_15
REMARK    6  A    between atoms: C4_17  and  C8_21
REMARK                            x       y       z     vdW  Elec       q    Type
REMARK                         _______ _______ _______ _____ _____    ______ ____
ROOT
ATOM      4  C   UNL     1       1.304   6.887   2.937  0.00  0.00    +0.101 A 
ATOM      5  N   UNL     1       2.062   7.320   3.967  0.00  0.00    -0.236 NA
ATOM      6  C   UNL     1       3.386   7.510   3.777  0.00  0.00    +0.171 A 
ATOM     22  C   UNL     1       3.976   7.254   2.490  0.00  0.00    +0.192 A 
ATOM     23  N   UNL     1       5.264   7.473   2.231  0.00  0.00    -0.105 NA
ATOM     24  N   UNL     1       3.204   6.810   1.470  0.00  0.00    -0.223 NA
ATOM     25  C   UNL     1       1.897   6.637   1.684  0.00  0.00    +0.120 A 
ENDROOT
BRANCH   4   3
ATOM      1  C   UNL     1      -1.991   6.758   4.790  0.00  0.00    -0.004 A 
ATOM      2  C   UNL     1      -0.702   7.116   4.425  0.00  0.00    +0.001 A 
ATOM      3  C   UNL     1      -0.143   6.683   3.221  0.00  0.00    +0.019 A 
ATOM     26  C   UNL     1      -0.975   5.964   2.354  0.00  0.00    +0.001 A 
ATOM     27  C   UNL     1      -2.285   5.645   2.709  0.00  0.00    -0.004 A 
ATOM     28  C   UNL     1      -2.793   5.996   3.946  0.00  0.00    -0.020 A 
BRANCH  28  29
ATOM     29  C   UNL     1      -4.123   5.461   4.421  0.00  0.00    +0.062 C 
BRANCH  29  30
ATOM     30  C   UNL     1      -5.290   6.374   4.114  0.00  0.00    +0.187 C 
ATOM     31  O   UNL     1      -6.492   5.830   4.625  0.00  0.00    -0.220 OA
ENDBRANCH  29  30
ENDBRANCH  28  29
ENDBRANCH   4   3
BRANCH   6   7
ATOM      7  C   UNL     1       4.148   7.963   4.996  0.00  0.00    +0.290 C 
ATOM      8  N   UNL     1       3.412   8.101   6.126  0.00  0.00    -0.171 NA
ATOM     21  O   UNL     1       5.356   8.140   4.947  0.00  0.00    -0.266 OA
BRANCH   8   9
ATOM      9  C   UNL     1       3.783   8.513   7.441  0.00  0.00    +0.106 A 
ATOM     10  C   UNL     1       2.898   8.297   8.516  0.00  0.00    +0.067 A 
ATOM     11  C   UNL     1       3.275   8.701   9.804  0.00  0.00    +0.036 A 
ATOM     12  C   UNL     1       4.522   9.282   9.964  0.00  0.00    +0.100 A 
ATOM     13  N   UNL     1       5.399   9.462   8.965  0.00  0.00    -0.241 NA
ATOM     20  C   UNL     1       5.036   9.081   7.735  0.00  0.00    +0.117 A 
BRANCH  10  14
ATOM     14  N   UNL     1       1.688   7.585   8.292  0.00  0.00    -0.302 N 
ATOM     15  C   UNL     1       0.536   7.883   9.147  0.00  0.00    +0.123 C 
ATOM     16  C   UNL     1      -0.719   7.398   8.468  0.00  0.00    +0.164 C 
ATOM     17  O   UNL     1      -0.648   5.989   8.193  0.00  0.00    -0.350 OA
ATOM     18  C   UNL     1       0.525   5.641   7.402  0.00  0.00    +0.164 C 
ATOM     19  C   UNL     1       1.802   6.145   8.032  0.00  0.00    +0.123 C 
ENDBRANCH  10  14
ENDBRANCH   8   9
ENDBRANCH   6   7
TORSDOF 6
