REMARK  Name = 3bwf_ligand
REMARK  2 active torsions:
REMARK  status: ('A' for Active; 'I' for Inactive)
REMARK    1  A    between atoms: C10_17  and  OS_31
REMARK    2  A    between atoms: C26_28  and  O15_29
REMARK                            x       y       z     vdW  Elec       q    Type
REMARK                         _______ _______ _______ _____ _____    ______ ____
ROOT
ATOM      1  O   UNL     1      21.431 -40.526   0.720  0.00  0.00    -0.373 OA
ATOM      2  C   UNL     1      20.612 -39.592   0.816  0.00  0.00    +0.230 C 
ATOM      3  N   UNL     1      20.115 -39.153   2.031  0.00  0.00    -0.200 N 
ATOM      4  H   UNL     1      20.357 -39.514   2.931  0.00  0.00    +0.221 HD
ATOM      5  C   UNL     1      19.232 -38.135   1.781  0.00  0.00    +0.237 C 
ATOM      6  C   UNL     1      19.172 -37.914   0.402  0.00  0.00    +0.070 A 
ATOM      7  C   UNL     1      18.446 -37.006  -0.417  0.00  0.00    +0.022 A 
ATOM      8  C   UNL     1      17.527 -35.968  -0.291  0.00  0.00    -0.008 A 
ATOM      9  C   UNL     1      16.897 -35.365   0.812  0.00  0.00    +0.009 A 
ATOM     10  C   UNL     1      15.988 -34.299   0.589  0.00  0.00    +0.075 A 
ATOM     13  C   UNL     1      15.704 -33.894  -0.738  0.00  0.00    +0.010 A 
ATOM     14  C   UNL     1      16.282 -34.531  -1.835  0.00  0.00    +0.009 A 
ATOM     15  C   UNL     1      17.214 -35.545  -1.610  0.00  0.00    +0.061 A 
ATOM     16  N   UNL     1      17.939 -36.271  -2.545  0.00  0.00    -0.271 NA
ATOM     17  H   UNL     1      17.939 -36.171  -3.570  0.00  0.00    +0.220 HD
ATOM     18 OS   UNL     1      18.233 -36.554  -4.619  0.00  0.00    +8.000 Os
ATOM     21  C   UNL     1      16.641 -35.570  -5.768  0.00  0.00    +0.139 C 
ATOM     22  C   UNL     1      17.573 -36.175  -6.677  0.00  0.00    -0.018 C 
ATOM     23  C   UNL     1      17.577 -37.591  -6.456  0.00  0.00    -0.052 C 
ATOM     24  C   UNL     1      16.639 -37.866  -5.401  0.00  0.00    -0.052 C 
ATOM     25  C   UNL     1      16.057 -36.612  -4.980  0.00  0.00    -0.018 C 
ATOM     26  N   UNL     1      19.551 -37.958  -3.803  0.00  0.00    -0.293 N 
ATOM     27  C   UNL     1      19.504 -38.047  -2.409  0.00  0.00    +0.082 A 
ATOM     28  C   UNL     1      20.231 -38.935  -1.628  0.00  0.00    +0.020 A 
ATOM     29  C   UNL     1      21.064 -39.820  -2.345  0.00  0.00    +0.038 A 
ATOM     30  C   UNL     1      21.120 -39.762  -3.756  0.00  0.00    +0.036 A 
ATOM     31  C   UNL     1      20.335 -38.834  -4.470  0.00  0.00    +0.094 A 
ATOM     32  C   UNL     1      18.649 -37.145  -1.784  0.00  0.00    +0.100 A 
ATOM     33  O   UNL     1      18.639 -37.550   2.679  0.00  0.00    -0.365 OA
ATOM     34  C   UNL     1      20.061 -38.848  -0.214  0.00  0.00    +0.072 A 
ENDROOT
BRANCH  10  11
ATOM     11  O   UNL     1      15.362 -33.685   1.644  0.00  0.00    -0.341 OA
ATOM     12  H   UNL     1      15.662 -34.072   2.458  0.00  0.00    +0.245 HD
ENDBRANCH  10  11
BRANCH  18  19
ATOM     19  C   UNL     1      19.500 -35.179  -4.711  0.00  0.00    +0.357 C 
ATOM     20  O   UNL     1      20.260 -34.371  -4.788  0.00  0.00    -0.356 OA
ENDBRANCH  18  19
TORSDOF 2
