REMARK  Name = 3SW4
REMARK  6 active torsions:
REMARK  status: ('A' for Active; 'I' for Inactive)
REMARK    1  A    between atoms: C_2  and  C_4
REMARK    2  A    between atoms: C_8  and  C_10
REMARK    3  A    between atoms: N_9  and  C_16
REMARK    4  A    between atoms: N_11  and  C_19
REMARK    5  A    between atoms: N_11  and  C_20
REMARK    6  A    between atoms: N_11  and  C_21
REMARK                            x       y       z     vdW  Elec       q    Type
REMARK                         _______ _______ _______ _____ _____    ______ ____
ROOT
ATOM      3  C   UNL     1      13.065   8.710 -13.307  0.00  0.00    +0.085 A 
ATOM      4  N   UNL     1      12.022   9.267 -12.673  0.00  0.00    -0.212 NA
ATOM      5  C   UNL     1      11.185  10.028 -13.411  0.00  0.00    +0.229 A 
ATOM      6  N   UNL     1      10.112  10.608 -12.817  0.00  0.00    -0.213 NA
ATOM     16  N   UNL     1      11.331  10.287 -14.717  0.00  0.00    -0.331 N 
ATOM     17  H   UNL     1      10.643  10.904 -15.256  0.00  0.00    +0.168 HD
ATOM     18  C   UNL     1      12.398   9.722 -15.307  0.00  0.00    +0.088 A 
ATOM     19  C   UNL     1      13.315   8.910 -14.659  0.00  0.00    +0.046 A 
ENDROOT
BRANCH   3   2
ATOM      1  S   UNL     1      13.331   7.658 -10.787  0.00  0.00    -0.051 S 
ATOM      2  C   UNL     1      13.911   7.889 -12.424  0.00  0.00    +0.062 A 
ATOM     20  C   UNL     1      15.128   7.209 -12.600  0.00  0.00    +0.057 A 
ATOM     21  N   UNL     1      15.568   6.549 -11.468  0.00  0.00    -0.230 NA
ATOM     22  C   UNL     1      15.957   7.143 -13.838  0.00  0.00    +0.067 C 
ATOM     23  C   UNL     1      14.750   6.705 -10.453  0.00  0.00    +0.156 A 
ATOM     24  N   UNL     1      14.989   6.237  -9.220  0.00  0.00    -0.338 N 
ATOM     25  H   UNL     1      15.865   5.653  -9.030  0.00  0.00    +0.144 HD
ATOM     26  H   UNL     1      14.304   6.447  -8.426  0.00  0.00    +0.144 HD
ENDBRANCH   3   2
BRANCH   6   7
ATOM      7  C   UNL     1       9.553  10.568 -11.524  0.00  0.00    +0.068 A 
ATOM      8  C   UNL     1       9.968   9.629 -10.586  0.00  0.00    +0.029 A 
ATOM      9  C   UNL     1       9.431   9.625  -9.310  0.00  0.00    +0.025 A 
ATOM     10  C   UNL     1       8.464  10.575  -8.972  0.00  0.00    +0.029 A 
ATOM     11  C   UNL     1       8.059  11.534  -9.897  0.00  0.00    +0.025 A 
ATOM     15  C   UNL     1       8.598  11.520 -11.172  0.00  0.00    +0.029 A 
BRANCH  10  12
ATOM     12  N   UNL     1       7.799  10.522  -7.647  0.00  0.00    -0.336 N 
ATOM     13  C   UNL     1       8.612   9.847  -6.593  0.00  0.00    +0.129 C 
ATOM     14  C   UNL     1       6.422   9.946  -7.724  0.00  0.00    +0.129 C 
ENDBRANCH  10  12
ENDBRANCH   6   7
TORSDOF 3
