REMARK  Name = 3prz_ligand
REMARK  3 active torsions:
REMARK  status: ('A' for Active; 'I' for Inactive)
REMARK    1  A    between atoms: C1_1  and  C9_9
REMARK    2  A    between atoms: C7_7  and  C13_13
REMARK    3  A    between atoms: N15_15  and  C16_16
REMARK                            x       y       z     vdW  Elec       q    Type
REMARK                         _______ _______ _______ _____ _____    ______ ____
ROOT
ATOM      1  C   UNL     1      45.084  11.654  28.140  0.00  0.00    +0.139 C 
ATOM      2  C   UNL     1      45.774  12.728  28.880  0.00  0.00    +0.073 A 
ATOM      3  N   UNL     1      45.021  13.449  29.712  0.00  0.00    -0.296 NA
ATOM      4  C   UNL     1      45.641  14.423  30.390  0.00  0.00    +0.053 A 
ATOM      5  C   UNL     1      44.973  15.246  31.289  0.00  0.00    +0.073 A 
ATOM     16  C   UNL     1      45.630  16.252  31.972  0.00  0.00    +0.036 A 
ATOM     17  C   UNL     1      46.975  16.467  31.772  0.00  0.00    +0.012 A 
ATOM     18  C   UNL     1      47.655  15.657  30.891  0.00  0.00    +0.035 A 
ATOM     19  C   UNL     1      47.000  14.650  30.210  0.00  0.00    +0.055 A 
ATOM     20  C   UNL     1      47.688  13.851  29.317  0.00  0.00    +0.138 A 
ATOM     21  N   UNL     1      49.051  14.062  29.095  0.00  0.00    -0.306 N 
ATOM     22  H   UNL     1      49.541  14.803  29.596  0.00  0.00    +0.188 HD
ATOM     23  H   UNL     1      49.557  13.475  28.432  0.00  0.00    +0.188 HD
ATOM     24  N   UNL     1      47.080  12.871  28.643  0.00  0.00    -0.252 NA
ENDROOT
BRANCH   5   6
ATOM      6  C   UNL     1      43.535  15.091  31.597  0.00  0.00    +0.235 C 
ATOM      7  N   UNL     1      42.881  14.077  30.920  0.00  0.00    -0.206 N 
ATOM      8  H   UNL     1      43.357  13.613  30.146  0.00  0.00    +0.232 HD
ATOM     15  O   UNL     1      43.029  15.836  32.427  0.00  0.00    -0.375 OA
BRANCH   7   9
ATOM      9  C   UNL     1      41.597  13.671  31.261  0.00  0.00    +0.178 A 
ATOM     10  N   UNL     1      40.933  14.046  32.364  0.00  0.00    -0.206 N 
ATOM     11  H   UNL     1      41.252  14.671  33.104  0.00  0.00    +0.248 HD
ATOM     12  N   UNL     1      39.755  13.413  32.274  0.00  0.00    -0.251 NA
ATOM     13  C   UNL     1      39.642  12.631  31.164  0.00  0.00    +0.027 A 
ATOM     14  C   UNL     1      40.820  12.781  30.479  0.00  0.00    -0.019 A 
ENDBRANCH   7   9
ENDBRANCH   5   6
TORSDOF 2
