REMARK  Name = 3ctj_ligand
REMARK  5 active torsions:
REMARK  status: ('A' for Active; 'I' for Inactive)
REMARK    1  A    between atoms: C23_7  and  C22_8
REMARK    2  A    between atoms: C22_8  and  C21_9
REMARK    3  A    between atoms: N18_14  and  C14_15
REMARK    4  A    between atoms: C11_21  and  O10_22
REMARK    5  A    between atoms: O10_22  and  C6_23
REMARK                            x       y       z     vdW  Elec       q    Type
REMARK                         _______ _______ _______ _____ _____    ______ ____
ROOT
ATOM     13  C   UNL     1       0.357   7.797  54.055  0.00  0.00    +0.056 A 
ATOM     14  C   UNL     1       0.735   7.870  55.361  0.00  0.00    -0.007 A 
ATOM     15  C   UNL     1       0.858   9.128  55.988  0.00  0.00    +0.009 A 
ATOM     16  C   UNL     1       0.567  10.274  55.286  0.00  0.00    +0.138 A 
ATOM     28  C   UNL     1       0.129  10.189  53.857  0.00  0.00    +0.153 A 
ATOM     29  F   UNL     1      -0.176  11.371  53.147  0.00  0.00    -0.192 F 
ATOM     30  C   UNL     1       0.049   8.974  53.260  0.00  0.00    +0.032 A 
ENDROOT
BRANCH  13  11
ATOM      7  C   UNL     1      -0.609   3.975  52.560  0.00  0.00    +0.216 C 
ATOM      8  N   UNL     1      -0.894   5.148  51.854  0.00  0.00    -0.179 N 
ATOM      9  H   UNL     1      -1.511   5.079  51.070  0.00  0.00    +0.226 HD
ATOM     10  C   UNL     1      -0.400   6.358  52.153  0.00  0.00    +0.315 C 
ATOM     11  N   UNL     1       0.232   6.552  53.387  0.00  0.00    -0.221 N 
ATOM     12  H   UNL     1       0.627   5.749  53.833  0.00  0.00    +0.223 HD
ATOM     31  O   UNL     1      -0.543   7.167  51.269  0.00  0.00    -0.382 OA
ATOM     32  O   UNL     1      -0.200   4.199  53.747  0.00  0.00    -0.384 OA
BRANCH   7   6
ATOM      6  C   UNL     1      -0.874   2.594  51.887  0.00  0.00    +0.205 C 
BRANCH   6   5
ATOM      1  F   UNL     1      -1.096  -1.049  56.225  0.00  0.00    -0.189 F 
ATOM      2  C   UNL     1      -1.105  -0.183  55.219  0.00  0.00    +0.125 A 
ATOM      3  C   UNL     1      -0.100  -0.270  54.328  0.00  0.00    +0.024 A 
ATOM      4  C   UNL     1      -0.067   0.682  53.242  0.00  0.00    -0.004 A 
ATOM      5  C   UNL     1      -0.966   1.606  53.085  0.00  0.00    -0.028 A 
ATOM     33  C   UNL     1      -2.080   1.678  54.092  0.00  0.00    -0.004 A 
ATOM     34  C   UNL     1      -2.163   0.824  55.127  0.00  0.00    +0.024 A 
ENDBRANCH   6   5
ENDBRANCH   7   6
ENDBRANCH  13  11
BRANCH  16  17
ATOM     17  O   UNL     1       0.631  11.675  55.767  0.00  0.00    -0.260 OA
BRANCH  17  18
ATOM     18  C   UNL     1      -0.450  12.034  56.679  0.00  0.00    +0.122 A 
ATOM     19  C   UNL     1      -0.137  12.855  57.818  0.00  0.00    +0.034 A 
ATOM     20  C   UNL     1       1.162  13.424  58.248  0.00  0.00    -0.029 A 
ATOM     21  C   UNL     1       0.931  14.105  59.425  0.00  0.00    +0.113 A 
ATOM     22  N   UNL     1      -0.493  14.015  59.741  0.00  0.00    -0.271 N 
ATOM     23  H   UNL     1      -0.983  14.435  60.544  0.00  0.00    +0.229 HD
ATOM     24  C   UNL     1      -1.066  13.213  58.689  0.00  0.00    +0.124 A 
ATOM     25  N   UNL     1      -2.326  12.795  58.514  0.00  0.00    -0.304 NA
ATOM     26  C   UNL     1      -2.732  12.056  57.534  0.00  0.00    +0.053 A 
ATOM     27  C   UNL     1      -1.750  11.644  56.531  0.00  0.00    +0.032 A 
ENDBRANCH  17  18
ENDBRANCH  16  17
TORSDOF 5
