REMARK  Name = 4i4f_ligand
REMARK  9 active torsions:
REMARK  status: ('A' for Active; 'I' for Inactive)
REMARK    1  A    between atoms: C1_1  and  N2_2
REMARK    2  A    between atoms: C6_6  and  N7_7
REMARK    3  A    between atoms: N7_7  and  C8_8
REMARK    4  A    between atoms: C8_8  and  C9_9
REMARK    5  A    between atoms: C12_12  and  C15_15
REMARK    6  A    between atoms: C15_15  and  C16_16
REMARK    7  A    between atoms: C15_15  and  C17_17
REMARK    8  A    between atoms: C15_15  and  C18_18
REMARK    9  A    between atoms: N25_25  and  C26_26
REMARK                            x       y       z     vdW  Elec       q    Type
REMARK                         _______ _______ _______ _____ _____    ______ ____
ROOT
ATOM      1  C   UNL     1     -10.318  -1.107 -15.577  0.00  0.00    +0.199 C 
ATOM      2  N   UNL     1     -11.102   0.019 -15.094  0.00  0.00    -0.183 N 
ATOM      3  S   UNL     1     -11.939  -0.072 -13.679  0.00  0.00    +0.078 S 
ATOM      4  O   UNL     1     -11.600  -1.266 -12.994  0.00  0.00    -0.149 OA
ATOM      5  O   UNL     1     -13.314   0.142 -14.033  0.00  0.00    -0.149 OA
ATOM      6  C   UNL     1     -11.401   1.365 -12.859  0.00  0.00    +0.128 A 
ATOM      7  C   UNL     1     -11.289   1.615 -11.496  0.00  0.00    +0.085 A 
ATOM      8  N   UNL     1     -10.812   2.826 -11.352  0.00  0.00    -0.221 NA
ATOM      9  N   UNL     1     -10.637   3.396 -12.620  0.00  0.00    -0.208 N 
ATOM     10  C   UNL     1     -10.124   4.749 -12.800  0.00  0.00    +0.236 C 
ATOM     11  C   UNL     1     -11.006   2.493 -13.571  0.00  0.00    +0.105 A 
ATOM     12  C   UNL     1     -10.996   2.491 -15.058  0.00  0.00    +0.021 A 
ATOM     13  C   UNL     1     -10.947   3.696 -15.787  0.00  0.00    -0.001 A 
ATOM     14  C   UNL     1     -10.910   3.687 -17.176  0.00  0.00    +0.025 A 
ATOM     28  C   UNL     1     -10.978   2.466 -17.881  0.00  0.00    -0.008 A 
ATOM     29  C   UNL     1     -11.068   1.250 -17.173  0.00  0.00    -0.006 A 
ATOM     30  C   UNL     1     -11.079   1.269 -15.769  0.00  0.00    +0.068 A 
ENDROOT
BRANCH  14  15
ATOM     15  N   UNL     1     -10.875   4.904 -17.895  0.00  0.00    -0.315 N 
ATOM     16  H   UNL     1     -11.358   4.939 -18.804  0.00  0.00    +0.174 HD
BRANCH  15  17
ATOM     17  C   UNL     1     -10.184   6.143 -17.424  0.00  0.00    +0.219 C 
BRANCH  17  18
ATOM     18  C   UNL     1      -9.771   6.880 -18.698  0.00  0.00    +0.009 A 
ATOM     19  C   UNL     1     -10.477   8.001 -19.116  0.00  0.00    +0.039 A 
ATOM     20  C   UNL     1     -10.064   8.655 -20.303  0.00  0.00    +0.038 A 
ATOM     21  C   UNL     1      -9.002   8.152 -21.059  0.00  0.00    -0.057 A 
ATOM     26  C   UNL     1      -8.303   7.025 -20.604  0.00  0.00    +0.038 A 
ATOM     27  C   UNL     1      -8.701   6.381 -19.441  0.00  0.00    +0.039 A 
BRANCH  21  22
ATOM     22  C   UNL     1      -8.559   8.814 -22.359  0.00  0.00    -0.052 C 
ATOM     23  C   UNL     1      -7.089   9.254 -22.277  0.00  0.00    -0.050 C 
ATOM     24  C   UNL     1      -9.396  10.056 -22.679  0.00  0.00    -0.050 C 
ATOM     25  C   UNL     1      -8.732   7.823 -23.531  0.00  0.00    -0.050 C 
ENDBRANCH  21  22
ENDBRANCH  17  18
ENDBRANCH  15  17
ENDBRANCH  14  15
TORSDOF 4
