REMARK  Name = CL9
REMARK  2 active torsions:
REMARK  status: ('A' for Active; 'I' for Inactive)
REMARK    1  A    between atoms: N9_8  and  C1'_12
REMARK    2  A    between atoms: C4'_16  and  C5'_18
REMARK                            x       y       z     vdW  Elec       q    Type
REMARK                         _______ _______ _______ _____ _____    ______ ____
ROOT
ATOM      1  C   UNL     1      51.665  67.612 101.469  0.00  0.00    +0.227 A 
ATOM      2 CL   UNL     1      52.863  68.851 101.887  0.00  0.00    -0.041 Cl
ATOM      3  N   UNL     1      50.383  67.769 101.877  0.00  0.00    -0.197 NA
ATOM      4  C   UNL     1      49.459  66.853 101.549  0.00  0.00    +0.193 A 
ATOM      5  N   UNL     1      48.182  66.972 101.952  0.00  0.00    -0.105 NA
ATOM      6  C   UNL     1      49.855  65.778 100.798  0.00  0.00    +0.152 A 
ATOM      7  C   UNL     1      51.176  65.665 100.395  0.00  0.00    +0.170 A 
ATOM      8  N   UNL     1      51.293  64.552  99.707  0.00  0.00    -0.271 N 
ATOM      9  C   UNL     1      50.084  63.980  99.646  0.00  0.00    +0.181 A 
ATOM     18  N   UNL     1      49.189  64.729 100.328  0.00  0.00    -0.219 NA
ATOM     19  N   UNL     1      52.079  66.586 100.730  0.00  0.00    -0.198 NA
ENDROOT
BRANCH   8  10
ATOM     10  C1* UNL     1      52.518  64.073  99.051  0.00  0.00    +0.209 C 
ATOM     11  C2* UNL     1      53.500  63.374  99.950  0.00  0.00    +0.089 C 
ATOM     12  C3* UNL     1      54.171  62.445  98.966  0.00  0.00    +0.186 C 
ATOM     13  O3* UNL     1      55.251  63.177  98.383  0.00  0.00    -0.220 OA
ATOM     14  C4* UNL     1      53.150  62.183  97.875  0.00  0.00    +0.180 C 
ATOM     17  O4* UNL     1      52.119  63.120  98.076  0.00  0.00    -0.333 OA
BRANCH  14  15
ATOM     15  C5* UNL     1      52.466  60.842  97.952  0.00  0.00    +0.214 C 
ATOM     16  O5* UNL     1      51.286  61.088  98.701  0.00  0.00    -0.218 OA
ENDBRANCH  14  15
ENDBRANCH   8  10
TORSDOF 2
