REMARK  Name = 4FV2
REMARK  5 active torsions:
REMARK  status: ('A' for Active; 'I' for Inactive)
REMARK    1  A    between atoms: C_2  and  C_14
REMARK    2  A    between atoms: N_3  and  C_4
REMARK    3  A    between atoms: C_4  and  C_5
REMARK    4  A    between atoms: C_18  and  C_19
REMARK    5  A    between atoms: C_23  and  C_24
REMARK                            x       y       z     vdW  Elec       q    Type
REMARK                         _______ _______ _______ _____ _____    ______ ____
ROOT
ATOM      3  C   UNL     1      17.246   4.079  16.995  0.00  0.00    +0.102 A 
ATOM      4  N   UNL     1      17.838   3.189  17.859  0.00  0.00    -0.356 N 
ATOM      5  H   UNL     1      17.432   2.849  18.723  0.00  0.00    +0.166 HD
ATOM      6  C   UNL     1      19.159   3.119  17.555  0.00  0.00    +0.093 A 
ATOM      7  C   UNL     1      19.433   3.935  16.474  0.00  0.00    +0.018 A 
ATOM     21  C   UNL     1      18.199   4.571  16.139  0.00  0.00    +0.042 A 
ENDROOT
BRANCH   7   8
ATOM      8  C   UNL     1      20.634   4.215  15.872  0.00  0.00    +0.075 A 
ATOM      9  C   UNL     1      21.101   5.371  15.094  0.00  0.00    +0.027 A 
ATOM     17  C   UNL     1      22.459   5.095  14.855  0.00  0.00    +0.143 A 
ATOM     18  N   UNL     1      22.847   3.944  15.391  0.00  0.00    -0.181 NA
ATOM     19  N   UNL     1      21.741   3.458  16.027  0.00  0.00    -0.276 N 
ATOM     20  H   UNL     1      21.742   2.501  16.368  0.00  0.00    +0.189 HD
BRANCH   9  10
ATOM     10  C   UNL     1      20.432   6.634  14.684  0.00  0.00    -0.013 A 
ATOM     11  C   UNL     1      20.561   7.123  13.388  0.00  0.00    +0.009 A 
ATOM     12  C   UNL     1      19.904   8.285  13.010  0.00  0.00    +0.002 A 
ATOM     13  C   UNL     1      19.095   8.966  13.911  0.00  0.00    +0.020 A 
ATOM     14  C   UNL     1      18.972   8.467  15.189  0.00  0.00    +0.042 A 
ATOM     15 CL   UNL     1      17.900   9.261  16.311  0.00  0.00    -0.084 Cl
ATOM     16  C   UNL     1      19.639   7.331  15.593  0.00  0.00    +0.028 A 
ENDBRANCH   9  10
ENDBRANCH   7   8
BRANCH   3   2
ATOM      1  O   UNL     1      15.097   3.731  17.903  0.00  0.00    -0.269 OA
ATOM      2  C   UNL     1      15.791   4.318  17.073  0.00  0.00    +0.261 C 
ATOM     22  N   UNL     1      15.283   5.167  16.177  0.00  0.00    -0.306 N 
ATOM     23  H   UNL     1      15.806   5.507  15.377  0.00  0.00    +0.149 HD
BRANCH  22  24
ATOM     24  C   UNL     1      13.915   5.659  16.242  0.00  0.00    +0.140 C 
BRANCH  24  25
ATOM     25  C   UNL     1      13.682   6.687  17.321  0.00  0.00    -0.030 A 
ATOM     26  C   UNL     1      12.459   6.745  17.985  0.00  0.00    +0.012 A 
ATOM     27  C   UNL     1      12.217   7.709  18.951  0.00  0.00    -0.002 A 
ATOM     28  C   UNL     1      10.958   7.982  19.731  0.00  0.00    +0.080 C 
ATOM     29  C   UNL     1      11.397   9.160  20.592  0.00  0.00    +0.234 C 
ATOM     30  O   UNL     1      12.764   9.497  20.220  0.00  0.00    -0.491 OA
ATOM     31  C   UNL     1      13.214   8.612  19.268  0.00  0.00    +0.124 A 
ATOM     32  C   UNL     1      14.452   8.577  18.644  0.00  0.00    +0.046 A 
ATOM     33  C   UNL     1      14.671   7.615  17.669  0.00  0.00    +0.009 A 
ENDBRANCH  24  25
ENDBRANCH  22  24
ENDBRANCH   3   2
TORSDOF 5
