REMARK  Name = 4a9t_ligand
REMARK  5 active torsions:
REMARK  status: ('A' for Active; 'I' for Inactive)
REMARK    1  A    between atoms: C1_1  and  C2_4
REMARK    2  A    between atoms: O1_3  and  C12_16
REMARK    3  A    between atoms: O1_3  and  CAS_25
REMARK    4  A    between atoms: C5_9  and  C9_13
REMARK    5  A    between atoms: C18_21  and  CAS_25
REMARK                            x       y       z     vdW  Elec       q    Type
REMARK                         _______ _______ _______ _____ _____    ______ ____
ROOT
ATOM      9  C   UNL     1       8.561 -49.147   9.069  0.00  0.00    +0.025 A 
ATOM     10  C   UNL     1       7.173 -49.104   8.953  0.00  0.00    +0.013 A 
ATOM     11  C   UNL     1       6.362 -49.538   9.999  0.00  0.00    +0.030 A 
ATOM     12  C   UNL     1       6.937 -49.987  11.184  0.00  0.00    +0.098 A 
ATOM     13  C   UNL     1       8.324 -50.060  11.289  0.00  0.00    +0.030 A 
ATOM     24  C   UNL     1       9.135 -49.649  10.235  0.00  0.00    +0.013 A 
ENDROOT
BRANCH   9   8
ATOM      3  C   UNL     1      11.345 -47.185   4.241  0.00  0.00    +0.036 A 
ATOM      4  C   UNL     1      12.479 -47.635   4.912  0.00  0.00    -0.001 A 
ATOM      5  C   UNL     1      12.356 -48.221   6.168  0.00  0.00    -0.002 A 
ATOM      6  C   UNL     1      11.101 -48.351   6.760  0.00  0.00    +0.034 A 
ATOM      7  N   UNL     1      10.693 -48.855   7.923  0.00  0.00    -0.307 NA
ATOM      8  C   UNL     1       9.365 -48.725   8.005  0.00  0.00    +0.135 A 
ATOM     25  N   UNL     1       8.925 -48.166   6.874  0.00  0.00    -0.249 N 
ATOM     26  H   UNL     1       7.950 -47.974   6.646  0.00  0.00    +0.230 HD
ATOM     27  C   UNL     1       9.971 -47.902   6.095  0.00  0.00    +0.086 A 
ATOM     28  C   UNL     1      10.092 -47.317   4.837  0.00  0.00    +0.040 A 
BRANCH   3   1
ATOM      1  C   UNL     1      11.469 -46.540   2.853  0.00  0.00    +0.196 C 
ATOM      2  O   UNL     1      12.563 -46.381   2.314  0.00  0.00    -0.388 OA
ATOM     29  N   UNL     1      10.320 -46.160   2.306  0.00  0.00    -0.301 N 
ATOM     30  H   UNL     1       9.442 -46.318   2.801  0.00  0.00    +0.181 HD
ATOM     31  H   UNL     1      10.315 -45.710   1.391  0.00  0.00    +0.181 HD
ENDBRANCH   3   1
ENDBRANCH   9   8
BRANCH  12  14
ATOM     14  O   UNL     1       6.175 -50.440  12.223  0.00  0.00    -0.313 OA
BRANCH  14  15
ATOM     15  C   UNL     1       4.774 -50.028  12.276  0.00  0.00    +0.199 C 
BRANCH  15  16
ATOM     16  C   UNL     1       4.382 -50.727  13.585  0.00  0.00    +0.030 C 
ATOM     17  C   UNL     1       5.006 -50.091  14.825  0.00  0.00    +0.057 C 
ATOM     18  C   UNL     1       4.580 -50.844  16.089  0.00  0.00    +0.130 C 
ATOM     19  N   UNL     1       5.039 -52.252  15.976  0.00  0.00    +0.227 N 
ATOM     20  H   UNL     1       4.889 -52.754  16.851  0.00  0.00    +0.201 HD
ATOM     21  H   UNL     1       6.039 -52.293  15.781  0.00  0.00    +0.201 HD
ATOM     22  C   UNL     1       4.261 -52.870  14.874  0.00  0.00    +0.130 C 
ATOM     23  C   UNL     1       4.665 -52.213  13.555  0.00  0.00    +0.057 C 
ENDBRANCH  15  16
ENDBRANCH  14  15
ENDBRANCH  12  14
TORSDOF 5
