REMARK  Name = 5AAE
REMARK  6 active torsions:
REMARK  status: ('A' for Active; 'I' for Inactive)
REMARK    1  A    between atoms: C_1  and  C_2
REMARK    2  A    between atoms: C_4  and  C_5
REMARK    3  A    between atoms: C_5  and  N_6
REMARK    4  A    between atoms: C_8  and  C_9
REMARK    5  A    between atoms: N_19  and  C_20
REMARK    6  A    between atoms: C_22  and  C_23
REMARK                            x       y       z     vdW  Elec       q    Type
REMARK                         _______ _______ _______ _____ _____    ______ ____
ROOT
ATOM     11  C   UNL     1       5.219 -30.160  -7.172  0.00  0.00    +0.032 A 
ATOM     12  C   UNL     1       4.345 -31.276  -6.853  0.00  0.00    +0.093 A 
ATOM     13  N   UNL     1       3.899 -31.806  -5.640  0.00  0.00    -0.338 N 
ATOM     14  H   UNL     1       4.149 -31.439  -4.667  0.00  0.00    +0.167 HD
ATOM     15  C   UNL     1       3.094 -32.865  -5.907  0.00  0.00    +0.117 A 
ATOM     16  C   UNL     1       2.431 -33.690  -4.973  0.00  0.00    +0.034 C 
ATOM     17  C   UNL     1       2.411 -33.606  -3.575  0.00  0.00    +0.064 C 
ATOM     18  C   UNL     1       3.114 -32.584  -2.699  0.00  0.00    +0.068 C 
ATOM     19  N   UNL     1       1.634 -34.622  -3.115  0.00  0.00    -0.189 NA
ATOM     20  N   UNL     1       1.170 -35.336  -4.167  0.00  0.00    -0.254 N 
ATOM     21  C   UNL     1       0.311 -36.493  -4.092  0.00  0.00    +0.152 C 
ATOM     22  C   UNL     1       1.636 -34.793  -5.312  0.00  0.00    +0.166 C 
ATOM     23  N   UNL     1       3.019 -33.019  -7.248  0.00  0.00    -0.325 N 
ATOM     24  H   UNL     1       2.457 -33.773  -7.757  0.00  0.00    +0.169 HD
ATOM     25  C   UNL     1       3.796 -32.032  -7.860  0.00  0.00    +0.157 A 
ATOM     26  N   UNL     1       4.060 -31.744  -9.196  0.00  0.00    -0.234 NA
ATOM     27  C   UNL     1       4.868 -30.704  -9.529  0.00  0.00    +0.133 A 
ATOM     28  C   UNL     1       5.462 -29.890  -8.538  0.00  0.00    +0.069 A 
ATOM     29 CL   UNL     1       6.490 -28.572  -9.073  0.00  0.00    -0.081 Cl
ENDROOT
BRANCH  11  10
ATOM      7  N   UNL     1       7.092 -28.057  -4.880  0.00  0.00    -0.265 N 
ATOM      8  N   UNL     1       6.028 -28.401  -4.121  0.00  0.00    -0.179 NA
ATOM      9  C   UNL     1       5.214 -29.209  -4.848  0.00  0.00    +0.143 A 
ATOM     10  C   UNL     1       5.772 -29.382  -6.113  0.00  0.00    +0.023 A 
ATOM     30  C   UNL     1       6.965 -28.642  -6.094  0.00  0.00    +0.117 A 
BRANCH   7   6
ATOM      6  C   UNL     1       8.183 -27.205  -4.467  0.00  0.00    +0.202 C 
BRANCH   6   5
ATOM      1  C   UNL     1       7.984 -22.085  -5.110  0.00  0.00    +0.089 C 
ATOM      2  C   UNL     1       7.628 -23.522  -4.740  0.00  0.00    +0.135 A 
ATOM      3  O   UNL     1       6.475 -23.931  -4.150  0.00  0.00    -0.360 OA
ATOM      4  N   UNL     1       6.533 -25.306  -3.979  0.00  0.00    -0.081 NA
ATOM      5  C   UNL     1       7.709 -25.751  -4.456  0.00  0.00    +0.105 A 
ATOM     31  C   UNL     1       8.421 -24.652  -4.940  0.00  0.00    +0.072 A 
ENDBRANCH   6   5
ENDBRANCH   7   6
ENDBRANCH  11  10
TORSDOF 3
