REMARK  Name = DXK
REMARK  1 active torsions:
REMARK  status: ('A' for Active; 'I' for Inactive)
REMARK    1  A    between atoms: CAA_6  and  C2_7
REMARK                            x       y       z     vdW  Elec       q    Type
REMARK                         _______ _______ _______ _____ _____    ______ ____
ROOT
ATOM      3  C   UNL     1       9.517   8.004  11.480  0.00  0.00    +0.366 C 
ATOM      4  N   UNL     1       9.560   6.715  11.844  0.00  0.00    -0.041 NA
ATOM      5  C   UNL     1      10.724   6.169  12.242  0.00  0.00    +0.335 C 
ATOM      6  N   UNL     1      10.742   4.861  12.596  0.00  0.00    -0.073 NA
ATOM      7  C   UNL     1      11.857   6.922  12.292  0.00  0.00    +0.125 A 
ATOM      8  C   UNL     1      13.142   6.725  12.616  0.00  0.00    +0.127 A 
ATOM      9  N   UNL     1      13.819   7.879  12.497  0.00  0.00    -0.165 NA
ATOM     10  N   UNL     1      13.029   8.729  12.084  0.00  0.00    -0.213 N 
ATOM     11  C   UNL     1      13.412  10.113  11.789  0.00  0.00    +0.157 C 
ATOM     12  C   UNL     1      11.803   8.203  11.941  0.00  0.00    +0.267 A 
ATOM     13  N   UNL     1      10.638   8.731  11.525  0.00  0.00    +0.014 NA
ENDROOT
BRANCH   3   2
ATOM      1  C   UNL     1       7.188   7.812  10.816  0.00  0.00    +0.011 A 
ATOM      2  C   UNL     1       8.323   8.592  11.050  0.00  0.00    +0.105 A 
ATOM     14  C   UNL     1       8.256   9.970  10.853  0.00  0.00    +0.106 A 
ATOM     15  N   UNL     1       7.059  10.563  10.424  0.00  0.00    -0.242 NA
ATOM     16  C   UNL     1       5.930   9.771  10.197  0.00  0.00    +0.099 A 
ATOM     17  C   UNL     1       5.996   8.399  10.391  0.00  0.00    +0.021 A 
ENDBRANCH   3   2
TORSDOF 1
