REMARK  Name = 2c6e_ligand
REMARK  10 active torsions:
REMARK  status: ('A' for Active; 'I' for Inactive)
REMARK    1  A    between atoms: N6_6  and  C7_7
REMARK    2  A    between atoms: C7_7  and  C8_8
REMARK    3  A    between atoms: C8_8  and  C9_9
REMARK    4  A    between atoms: C8_8  and  O39_39
REMARK    5  A    between atoms: C9_9  and  O10_10
REMARK    6  A    between atoms: O10_10  and  C11_11
REMARK    7  A    between atoms: C12_12  and  O37_37
REMARK    8  A    between atoms: N21_21  and  C22_22
REMARK    9  A    between atoms: C29_29  and  C30_30
REMARK   10  A    between atoms: O37_37  and  C38_38
REMARK                            x       y       z     vdW  Elec       q    Type
REMARK                         _______ _______ _______ _____ _____    ______ ____
ROOT
ATOM     10  C   UNL     1      22.294  87.227  73.066  0.00  0.00    +0.133 A 
ATOM     11  C   UNL     1      21.911  88.516  73.537  0.00  0.00    +0.033 A 
ATOM     12  C   UNL     1      22.005  89.651  72.695  0.00  0.00    +0.026 A 
ATOM     13  N   UNL     1      21.634  90.872  73.162  0.00  0.00    -0.305 NA
ATOM     14  C   UNL     1      21.733  91.911  72.347  0.00  0.00    +0.154 A 
ATOM     15  N   UNL     1      22.169  91.877  71.088  0.00  0.00    -0.261 NA
ATOM     16  C   UNL     1      22.560  90.693  70.539  0.00  0.00    +0.150 A 
ATOM     17  N   UNL     1      23.025  90.704  69.148  0.00  0.00    -0.246 N 
ATOM     18  H   UNL     1      23.431  89.817  68.817  0.00  0.00    +0.221 HD
ATOM     35  C   UNL     1      22.506  89.483  71.312  0.00  0.00    +0.039 A 
ATOM     36  C   UNL     1      22.881  88.197  70.870  0.00  0.00    +0.037 A 
ATOM     37  C   UNL     1      22.781  87.073  71.728  0.00  0.00    +0.132 A 
ENDROOT
BRANCH  17  19
ATOM     19  C   UNL     1      23.001  91.757  68.180  0.00  0.00    +0.105 A 
ATOM     20  C   UNL     1      21.936  92.724  68.097  0.00  0.00    +0.119 A 
ATOM     21  N   UNL     1      21.955  93.708  67.214  0.00  0.00    -0.262 NA
ATOM     22  C   UNL     1      22.992  93.783  66.394  0.00  0.00    +0.211 A 
ATOM     23  N   UNL     1      23.043  94.876  65.467  0.00  0.00    -0.203 N 
ATOM     24  H   UNL     1      22.404  95.597  65.735  0.00  0.00    +0.234 HD
ATOM     25  C   UNL     1      23.696  95.214  64.346  0.00  0.00    +0.239 C 
ATOM     26  O   UNL     1      24.531  94.448  63.824  0.00  0.00    -0.370 OA
ATOM     33  N   UNL     1      24.042  92.933  66.367  0.00  0.00    -0.262 NA
ATOM     34  C   UNL     1      24.061  91.923  67.246  0.00  0.00    +0.119 A 
BRANCH  25  27
ATOM     27  C   UNL     1      23.352  96.585  63.786  0.00  0.00    +0.057 A 
ATOM     28  C   UNL     1      23.998  97.035  62.589  0.00  0.00    +0.026 A 
ATOM     29  C   UNL     1      23.710  98.303  62.042  0.00  0.00    +0.007 A 
ATOM     30  C   UNL     1      22.776  99.153  62.676  0.00  0.00    +0.008 A 
ATOM     31  C   UNL     1      22.122  98.742  63.860  0.00  0.00    +0.007 A 
ATOM     32  C   UNL     1      22.405  97.470  64.411  0.00  0.00    +0.026 A 
ENDBRANCH  25  27
ENDBRANCH  17  19
BRANCH  37  38
ATOM     38  O   UNL     1      23.170  85.827  71.240  0.00  0.00    -0.320 OA
ATOM     39  C   UNL     1      22.679  85.375  69.951  0.00  0.00    +0.231 C 
ENDBRANCH  37  38
BRANCH  10   9
ATOM      9  O   UNL     1      22.186  86.127  73.930  0.00  0.00    -0.310 OA
BRANCH   9   8
ATOM      8  C   UNL     1      21.703  86.217  75.301  0.00  0.00    +0.231 C 
BRANCH   8   5
ATOM      5  C   UNL     1      22.091  84.946  76.062  0.00  0.00    +0.190 C 
BRANCH   5   6
ATOM      6  O   UNL     1      23.466  84.677  75.820  0.00  0.00    -0.384 OA
ATOM      7  H   UNL     1      23.604  84.552  74.888  0.00  0.00    +0.210 HD
ENDBRANCH   5   6
BRANCH   5   4
ATOM      4  C   UNL     1      21.844  85.007  77.590  0.00  0.00    +0.165 C 
BRANCH   4   2
ATOM      1  C   UNL     1      21.364  83.849  79.751  0.00  0.00    +0.131 C 
ATOM      2  N   UNL     1      21.562  83.678  78.268  0.00  0.00    +0.237 N 
ATOM      3  H   UNL     1      22.382  83.106  78.142  0.00  0.00    +0.203 HD
ATOM     40  C   UNL     1      20.403  82.931  77.637  0.00  0.00    +0.131 C 
ATOM     41  C   UNL     1      20.171  81.530  78.286  0.00  0.00    +0.051 C 
ATOM     42  C   UNL     1      20.089  81.594  79.848  0.00  0.00    +0.010 C 
ATOM     43  C   UNL     1      21.204  82.482  80.488  0.00  0.00    +0.051 C 
ENDBRANCH   4   2
ENDBRANCH   5   4
ENDBRANCH   8   5
ENDBRANCH   9   8
ENDBRANCH  10   9
TORSDOF 9
