REMARK  Name = 4UJ1
REMARK  3 active torsions:
REMARK  status: ('A' for Active; 'I' for Inactive)
REMARK    1  A    between atoms: C_11  and  C_12
REMARK    2  A    between atoms: C_16  and  C_17
REMARK    3  A    between atoms: C_17  and  C_19
REMARK                            x       y       z     vdW  Elec       q    Type
REMARK                         _______ _______ _______ _____ _____    ______ ____
ROOT
ATOM      3  C   UNL     1     -26.665   9.205   3.566  0.00  0.00    +0.044 C 
ATOM      4  C   UNL     1     -25.693   9.551   2.445  0.00  0.00    +0.083 C 
ATOM     14  C   UNL     1     -24.582   8.447   2.793  0.00  0.00    +0.093 C 
ATOM     15  N   UNL     1     -25.304   7.172   3.099  0.00  0.00    -0.315 NA
ATOM     16  H   UNL     1     -25.299   6.524   2.248  0.00  0.00    +0.122 HD
ATOM     17  C   UNL     1     -26.692   7.584   3.432  0.00  0.00    +0.089 C 
ENDROOT
BRANCH   3   2
ATOM      1  C   UNL     1     -28.851   9.387   2.391  0.00  0.00    +0.032 A 
ATOM      2  C   UNL     1     -28.092   9.494   3.529  0.00  0.00    -0.040 A 
ATOM     18  C   UNL     1     -28.781   9.767   4.729  0.00  0.00    +0.005 A 
ATOM     19  C   UNL     1     -30.172  10.005   4.738  0.00  0.00    +0.016 A 
ATOM     20  C   UNL     1     -30.937   9.957   3.554  0.00  0.00    +0.065 A 
ATOM     21  C   UNL     1     -32.332  10.157   3.593  0.00  0.00    +0.259 C 
ATOM     22  O   UNL     1     -32.942  10.371   4.669  0.00  0.00    -0.267 OA
ATOM     23  N   UNL     1     -33.046  10.054   2.410  0.00  0.00    -0.313 N 
ATOM     24  H   UNL     1     -34.108  10.182   2.388  0.00  0.00    +0.170 HD
ATOM     25  C   UNL     1     -32.347   9.785   1.285  0.00  0.00    +0.199 C 
ATOM     26  N   UNL     1     -30.943   9.563   1.232  0.00  0.00    -0.237 NA
ATOM     27  C   UNL     1     -30.246   9.629   2.373  0.00  0.00    +0.078 A 
ENDBRANCH   3   2
BRANCH   4   5
ATOM      5  C   UNL     1     -24.980  10.939   2.479  0.00  0.00    +0.168 C 
ATOM     13  O   UNL     1     -25.020  11.588   3.520  0.00  0.00    -0.292 OA
BRANCH   5   6
ATOM      6  C   UNL     1     -24.269  11.401   1.346  0.00  0.00    +0.019 A 
ATOM      7  C   UNL     1     -23.942  10.549   0.288  0.00  0.00    +0.011 A 
ATOM      8  C   UNL     1     -23.244  10.932  -0.874  0.00  0.00    +0.002 A 
ATOM      9  C   UNL     1     -22.798  12.245  -0.972  0.00  0.00    +0.020 A 
ATOM     10  C   UNL     1     -23.095  13.096   0.071  0.00  0.00    +0.042 A 
ATOM     11 CL   UNL     1     -22.588  14.573  -0.139  0.00  0.00    -0.084 Cl
ATOM     12  C   UNL     1     -23.796  12.718   1.235  0.00  0.00    +0.031 A 
ENDBRANCH   5   6
ENDBRANCH   4   5
TORSDOF 3
