REMARK  Name = 4CCU
REMARK  12 active torsions:
REMARK  status: ('A' for Active; 'I' for Inactive)
REMARK    1  A    between atoms: C_8  and  C_13
REMARK    2  A    between atoms: C_9  and  C_21
REMARK    3  A    between atoms: C_10  and  N_27
REMARK    4  A    between atoms: C_11  and  O_30
REMARK    5  A    between atoms: C_14  and  C_17
REMARK    6  A    between atoms: C_15  and  N_28
REMARK    7  A    between atoms: C_16  and  C_22
REMARK    8  A    between atoms: C_18  and  C_21
REMARK    9  A    between atoms: C_19  and  C_22
REMARK   10  A    between atoms: C_20  and  C_22
REMARK   11  A    between atoms: C_21  and  O_30
REMARK   12  A    between atoms: C_22  and  O_29
REMARK                            x       y       z     vdW  Elec       q    Type
REMARK                         _______ _______ _______ _____ _____    ______ ____
ROOT
ATOM     13  C   UNL     1      29.941  44.656   9.267  0.00  0.00    +0.161 A 
ATOM     14  C   UNL     1      28.855  44.345  10.122  0.00  0.00    +0.158 A 
ATOM     18  N   UNL     1      27.790  45.217  10.287  0.00  0.00    -0.236 NA
ATOM     19  C   UNL     1      27.790  46.417   9.605  0.00  0.00    +0.122 A 
ATOM     20  C   UNL     1      28.821  46.821   8.730  0.00  0.00    +0.012 A 
ATOM     32  C   UNL     1      29.885  45.904   8.589  0.00  0.00    +0.059 A 
ENDROOT
BRANCH  20  21
ATOM     21  C   UNL     1      28.846  48.103   7.986  0.00  0.00    +0.044 A 
ATOM     22  S   UNL     1      30.384  48.842   7.674  0.00  0.00    -0.069 S 
ATOM     23  C   UNL     1      29.635  50.139   6.848  0.00  0.00    +0.110 A 
ATOM     24  N   UNL     1      28.319  50.064   6.791  0.00  0.00    -0.246 NA
ATOM     30  C   UNL     1      27.849  48.920   7.427  0.00  0.00    +0.054 A 
ATOM     31  C   UNL     1      26.367  48.727   7.424  0.00  0.00    +0.067 C 
BRANCH  23  25
ATOM     25  C   UNL     1      30.436  51.265   6.229  0.00  0.00    +0.108 C 
ATOM     28  C   UNL     1      30.221  51.261   4.709  0.00  0.00    +0.048 C 
ATOM     29  C   UNL     1      30.046  52.617   6.824  0.00  0.00    +0.048 C 
BRANCH  25  26
ATOM     26  O   UNL     1      31.836  51.058   6.470  0.00  0.00    -0.383 OA
ATOM     27  H   UNL     1      32.014  51.035   7.505  0.00  0.00    +0.211 HD
ENDBRANCH  25  26
ENDBRANCH  23  25
ENDBRANCH  20  21
BRANCH  14  15
ATOM     15  N   UNL     1      28.847  43.121  10.830  0.00  0.00    -0.340 N 
ATOM     16  H   UNL     1      28.029  42.882  11.477  0.00  0.00    +0.144 HD
ATOM     17  H   UNL     1      29.659  42.433  10.719  0.00  0.00    +0.144 HD
ENDBRANCH  14  15
BRANCH  13  12
ATOM     12  O   UNL     1      30.961  43.717   9.174  0.00  0.00    -0.481 OA
BRANCH  12  11
ATOM     11  C   UNL     1      32.142  43.923   8.328  0.00  0.00    +0.203 C 
ATOM     33  C   UNL     1      32.785  42.537   8.160  0.00  0.00    +0.057 C 
BRANCH  11  10
ATOM      1  C   UNL     1      34.661  46.917   8.924  0.00  0.00    +0.032 A 
ATOM      2  C   UNL     1      33.768  46.035   8.228  0.00  0.00    +0.089 A 
ATOM     10  C   UNL     1      33.132  44.942   8.941  0.00  0.00    +0.022 A 
ATOM     34  C   UNL     1      33.439  44.799  10.346  0.00  0.00    +0.047 A 
ATOM     35  C   UNL     1      34.324  45.687  10.999  0.00  0.00    +0.124 A 
ATOM     36  F   UNL     1      34.582  45.524  12.304  0.00  0.00    -0.205 F 
ATOM     37  C   UNL     1      34.934  46.742  10.300  0.00  0.00    +0.040 A 
BRANCH   2   3
ATOM      3  N   UNL     1      33.574  46.322   6.838  0.00  0.00    -0.196 N 
ATOM      4  N   UNL     1      33.789  45.419   5.853  0.00  0.00    -0.284 N 
ATOM      5  H   UNL     1      34.117  44.404   5.935  0.00  0.00    +0.188 HD
ATOM      6  C   UNL     1      33.489  46.115   4.753  0.00  0.00    +0.122 A 
ATOM      7  C   UNL     1      33.104  47.408   5.094  0.00  0.00    +0.122 A 
ATOM      8  N   UNL     1      33.154  47.555   6.417  0.00  0.00    -0.284 N 
ATOM      9  H   UNL     1      32.924  48.420   7.003  0.00  0.00    +0.188 HD
ENDBRANCH   2   3
ENDBRANCH  11  10
ENDBRANCH  12  11
ENDBRANCH  13  12
TORSDOF 8
