REMARK  Name = 2ITW
REMARK  5 active torsions:
REMARK  status: ('A' for Active; 'I' for Inactive)
REMARK    1  A    between atoms: C_4  and  N_34
REMARK    2  A    between atoms: C_5  and  O_32
REMARK    3  A    between atoms: C_6  and  C_7
REMARK    4  A    between atoms: O_32  and  C_33
REMARK    5  A    between atoms: N_34  and  C_35
REMARK                            x       y       z     vdW  Elec       q    Type
REMARK                         _______ _______ _______ _____ _____    ______ ____
ROOT
ATOM      1  O   UNL     1     -46.613  -0.366 -19.216  0.00  0.00    -0.321 OA
ATOM      2  C   UNL     1     -46.773  -1.396 -20.255  0.00  0.00    +0.175 C 
ATOM      3  N   UNL     1     -47.982  -0.928 -21.169  0.00  0.00    -0.307 N 
ATOM      4  C   UNL     1     -48.083  -1.155 -22.512  0.00  0.00    +0.053 A 
ATOM      5  C   UNL     1     -47.293  -1.824 -23.455  0.00  0.00    +0.026 A 
ATOM      6  C   UNL     1     -47.663  -1.898 -24.799  0.00  0.00    +0.002 A 
ATOM      7  C   UNL     1     -48.831  -1.306 -25.261  0.00  0.00    +0.001 A 
ATOM      8  C   UNL     1     -49.633  -0.640 -24.341  0.00  0.00    +0.010 A 
ATOM      9  C   UNL     1     -49.260  -0.567 -22.986  0.00  0.00    +0.008 A 
ATOM     10  C   UNL     1     -49.869   0.031 -21.886  0.00  0.00    +0.015 A 
ATOM     11  C   UNL     1     -51.050   0.760 -21.732  0.00  0.00    -0.008 A 
ATOM     12  C   UNL     1     -52.050   1.108 -22.812  0.00  0.00    +0.141 C 
ATOM     13  N   UNL     1     -53.044   1.853 -22.061  0.00  0.00    -0.307 N 
ATOM     14  H   UNL     1     -53.929   2.288 -22.477  0.00  0.00    +0.149 HD
ATOM     15  C   UNL     1     -52.693   1.916 -20.779  0.00  0.00    +0.245 C 
ATOM     16  O   UNL     1     -53.413   2.507 -19.978  0.00  0.00    -0.270 OA
ATOM     17  C   UNL     1     -51.473   1.261 -20.495  0.00  0.00    +0.051 A 
ATOM     18  C   UNL     1     -50.645   1.013 -19.352  0.00  0.00    +0.018 A 
ATOM     19  C   UNL     1     -50.655   1.317 -17.975  0.00  0.00    -0.018 A 
ATOM     20  C   UNL     1     -51.714   2.105 -17.165  0.00  0.00    +0.037 C 
ATOM     21  C   UNL     1     -51.299   2.367 -15.695  0.00  0.00    +0.005 C 
ATOM     22  C   UNL     1     -50.454   1.240 -15.064  0.00  0.00    +0.006 C 
ATOM     23  C   UNL     1     -49.187   0.903 -15.885  0.00  0.00    +0.054 C 
ATOM     24  C   UNL     1     -49.499   0.763 -17.393  0.00  0.00    +0.026 A 
ATOM     25  N   UNL     1     -48.795   0.136 -18.366  0.00  0.00    -0.309 N 
ATOM     26  C   UNL     1     -49.454   0.283 -19.525  0.00  0.00    +0.077 A 
ATOM     27  C   UNL     1     -49.059  -0.208 -20.783  0.00  0.00    +0.077 A 
ATOM     28  C   UNL     1     -45.449  -1.337 -21.030  0.00  0.00    +0.069 C 
ATOM     29  C   UNL     1     -46.854  -2.875 -19.694  0.00  0.00    +0.188 C 
ATOM     32  C   UNL     1     -46.590  -2.828 -18.132  0.00  0.00    +0.092 C 
ATOM     36  C   UNL     1     -47.423  -1.730 -17.369  0.00  0.00    +0.084 C 
ATOM     37  C   UNL     1     -47.616  -0.538 -18.329  0.00  0.00    +0.199 C 
ENDROOT
BRANCH  32  33
ATOM     33  N   UNL     1     -46.712  -4.182 -17.536  0.00  0.00    -0.314 NA
ATOM     34  H   UNL     1     -47.677  -4.578 -17.773  0.00  0.00    +0.122 HD
ATOM     35  C   UNL     1     -45.670  -5.113 -18.052  0.00  0.00    +0.101 C 
ENDBRANCH  32  33
BRANCH  29  30
ATOM     30  O   UNL     1     -47.991  -3.730 -20.247  0.00  0.00    -0.374 OA
ATOM     31  C   UNL     1     -47.653  -4.362 -21.551  0.00  0.00    +0.194 C 
ENDBRANCH  29  30
TORSDOF 2
