REMARK  Name = 6BQQ
REMARK  10 active torsions:
REMARK  status: ('A' for Active; 'I' for Inactive)
REMARK    1  A    between atoms: N_2  and  C_7
REMARK    2  A    between atoms: C_4  and  C_34
REMARK    3  A    between atoms: C_6  and  N_28
REMARK    4  A    between atoms: C_8  and  C_34
REMARK    5  A    between atoms: C_13  and  C_23
REMARK    6  A    between atoms: C_14  and  N_18
REMARK    7  A    between atoms: N_20  and  C_21
REMARK    8  A    between atoms: C_24  and  O_25
REMARK    9  A    between atoms: O_25  and  C_26
REMARK   10  A    between atoms: N_36  and  C_37
REMARK                            x       y       z     vdW  Elec       q    Type
REMARK                         _______ _______ _______ _____ _____    ______ ____
ROOT
ATOM      1  N   UNL     1      26.264  17.924  43.745  0.00  0.00    -0.329 N 
ATOM      2  H   UNL     1      26.790  18.627  43.134  0.00  0.00    +0.168 HD
ATOM      3  C   UNL     1      25.643  18.305  44.876  0.00  0.00    +0.230 A 
ATOM      4  N   UNL     1      24.984  17.480  45.712  0.00  0.00    -0.195 NA
ATOM      5  C   UNL     1      24.929  16.173  45.411  0.00  0.00    +0.149 A 
ATOM      6  C   UNL     1      25.543  15.702  44.239  0.00  0.00    +0.093 A 
ATOM      7  N   UNL     1      25.440  14.332  43.874  0.00  0.00    -0.269 N 
ATOM      8  C   UNL     1      25.958  13.896  42.566  0.00  0.00    +0.138 C 
ATOM      9  C   UNL     1      24.766  13.420  44.632  0.00  0.00    +0.240 C 
ATOM     10  O   UNL     1      24.508  12.295  44.218  0.00  0.00    -0.273 OA
ATOM     11  C   UNL     1      24.351  13.825  46.032  0.00  0.00    +0.161 C 
ATOM     14  N   UNL     1      24.278  15.282  46.281  0.00  0.00    -0.299 N 
ATOM     20  N   UNL     1      25.690  19.631  45.138  0.00  0.00    -0.209 NA
ATOM     40  C   UNL     1      26.196  16.636  43.419  0.00  0.00    +0.112 A 
ENDROOT
BRANCH  20  21
ATOM     21  C   UNL     1      25.156  20.403  46.194  0.00  0.00    +0.109 A 
ATOM     22  C   UNL     1      25.665  21.704  46.283  0.00  0.00    +0.146 A 
ATOM     25  C   UNL     1      25.240  22.521  47.310  0.00  0.00    +0.060 A 
ATOM     26  C   UNL     1      24.300  22.065  48.230  0.00  0.00    +0.040 A 
ATOM     27  C   UNL     1      23.811  20.767  48.143  0.00  0.00    +0.015 A 
ATOM     39  C   UNL     1      24.233  19.935  47.132  0.00  0.00    +0.032 A 
BRANCH  26  28
ATOM     28  C   UNL     1      23.903  22.977  49.345  0.00  0.00    +0.244 C 
ATOM     29  N   UNL     1      23.694  22.396  50.543  0.00  0.00    -0.308 N 
ATOM     30  H   UNL     1      23.888  21.348  50.636  0.00  0.00    +0.149 HD
ATOM     38  O   UNL     1      23.882  24.195  49.177  0.00  0.00    -0.270 OA
BRANCH  29  31
ATOM     31  C   UNL     1      23.217  23.118  51.724  0.00  0.00    +0.076 C 
ATOM     32  C   UNL     1      22.219  22.249  52.478  0.00  0.00    +0.037 C 
ATOM     33  C   UNL     1      21.818  22.883  53.801  0.00  0.00    +0.086 C 
ATOM     34  N   UNL     1      22.993  23.158  54.634  0.00  0.00    -0.305 NA
ATOM     35  C   UNL     1      22.574  23.705  55.956  0.00  0.00    +0.105 C 
ATOM     36  C   UNL     1      23.909  24.079  53.945  0.00  0.00    +0.086 C 
ATOM     37  C   UNL     1      24.390  23.504  52.613  0.00  0.00    +0.037 C 
ENDBRANCH  29  31
ENDBRANCH  26  28
BRANCH  22  23
ATOM     23  O   UNL     1      26.569  22.054  45.319  0.00  0.00    -0.493 OA
ATOM     24  C   UNL     1      27.219  23.321  45.390  0.00  0.00    +0.277 C 
ENDBRANCH  22  23
ENDBRANCH  20  21
BRANCH  14  15
ATOM     15  C   UNL     1      23.527  15.640  47.530  0.00  0.00    +0.076 C 
ATOM     16  C   UNL     1      22.317  16.546  47.331  0.00  0.00    +0.022 C 
ATOM     17  C   UNL     1      22.032  17.093  48.719  0.00  0.00    +0.002 C 
ATOM     18  C   UNL     1      23.284  16.848  49.558  0.00  0.00    +0.002 C 
ATOM     19  C   UNL     1      24.345  16.406  48.575  0.00  0.00    +0.022 C 
ENDBRANCH  14  15
BRANCH  11  12
ATOM     12  C   UNL     1      25.309  13.125  47.013  0.00  0.00    +0.028 C 
ATOM     13  C   UNL     1      26.762  13.513  46.870  0.00  0.00    +0.006 C 
ENDBRANCH  11  12
TORSDOF 6
