REMARK  Name = 3LXP
REMARK  4 active torsions:
REMARK  status: ('A' for Active; 'I' for Inactive)
REMARK    1  A    between atoms: C_18  and  C_20
REMARK    2  A    between atoms: C_20  and  C_21
REMARK    3  A    between atoms: C_20  and  C_22
REMARK    4  A    between atoms: C_20  and  C_23
REMARK                            x       y       z     vdW  Elec       q    Type
REMARK                         _______ _______ _______ _____ _____    ______ ____
ROOT
ATOM      1  O   UNL     1      -6.994  26.764 -34.200  0.00  0.00    -0.267 OA
ATOM      2  C   UNL     1      -6.656  25.647 -33.832  0.00  0.00    +0.257 C 
ATOM      3  C   UNL     1      -5.807  25.451 -32.637  0.00  0.00    +0.056 C 
ATOM      4  C   UNL     1      -5.355  26.502 -31.846  0.00  0.00    -0.000 C 
ATOM      5  C   UNL     1      -4.560  26.237 -30.744  0.00  0.00    +0.011 C 
ATOM      6  C   UNL     1      -4.213  24.932 -30.415  0.00  0.00    +0.097 C 
ATOM      7  N   UNL     1      -3.451  24.415 -29.386  0.00  0.00    -0.231 NA
ATOM      8  C   UNL     1      -3.462  23.111 -29.552  0.00  0.00    +0.114 C 
ATOM     13  N   UNL     1      -4.207  22.758 -30.653  0.00  0.00    -0.341 NA
ATOM     14  H   UNL     1      -4.379  21.763 -31.008  0.00  0.00    +0.167 HD
ATOM     15  C   UNL     1      -4.691  23.916 -31.215  0.00  0.00    +0.075 C 
ATOM     16  C   UNL     1      -4.081  27.244 -29.932  0.00  0.00    +0.013 C 
ATOM     17  C   UNL     1      -4.399  28.554 -30.197  0.00  0.00    +0.039 C 
ATOM     18  C   UNL     1      -5.184  28.845 -31.276  0.00  0.00    +0.124 C 
ATOM     19  F   UNL     1      -5.503  30.143 -31.525  0.00  0.00    -0.205 F 
ATOM     20  C   UNL     1      -5.663  27.838 -32.088  0.00  0.00    +0.047 C 
ATOM     21  C   UNL     1      -5.475  24.144 -32.324  0.00  0.00    +0.015 C 
ATOM     22  C   UNL     1      -5.926  23.026 -33.105  0.00  0.00    +0.028 C 
ATOM     23  C   UNL     1      -6.689  23.257 -34.162  0.00  0.00    +0.086 C 
ATOM     24  N   UNL     1      -7.048  24.517 -34.514  0.00  0.00    -0.329 N 
ATOM     25  H   UNL     1      -7.673  24.640 -35.373  0.00  0.00    +0.168 HD
ENDROOT
BRANCH   8   9
ATOM      9  C   UNL     1      -2.835  22.090 -28.690  0.00  0.00    +0.020 C 
ATOM     10  C   UNL     1      -1.949  22.691 -27.614  0.00  0.00    +0.019 C 
ATOM     11  C   UNL     1      -2.131  21.012 -29.462  0.00  0.00    +0.019 C 
ATOM     12  C   UNL     1      -4.004  21.455 -27.948  0.00  0.00    +0.019 C 
ENDBRANCH   8   9
TORSDOF 1
