REMARK  Name = 2BAQ
REMARK  10 active torsions:
REMARK  status: ('A' for Active; 'I' for Inactive)
REMARK    1  A    between atoms: N_1  and  C_2
REMARK    2  A    between atoms: C_3  and  C_14
REMARK    3  A    between atoms: N_6  and  C_7
REMARK    4  A    between atoms: C_14  and  C_16
REMARK    5  A    between atoms: C_20  and  O_21
REMARK    6  A    between atoms: O_21  and  C_22
REMARK    7  A    between atoms: C_22  and  C_23
REMARK    8  A    between atoms: C_23  and  O_24
REMARK    9  A    between atoms: C_23  and  C_25
REMARK   10  A    between atoms: C_25  and  O_26
REMARK                            x       y       z     vdW  Elec       q    Type
REMARK                         _______ _______ _______ _____ _____    ______ ____
ROOT
ATOM     16  C   UNL     1      -2.613  -1.840  22.567  0.00  0.00    +0.198 C 
ATOM     31  O   UNL     1      -3.001  -2.929  22.198  0.00  0.00    -0.286 OA
ENDROOT
BRANCH  16  17
ATOM     17  C   UNL     1      -1.969  -1.648  23.868  0.00  0.00    +0.026 A 
ATOM     18  C   UNL     1      -2.591  -2.137  25.029  0.00  0.00    +0.057 A 
ATOM     19  C   UNL     1      -1.986  -1.963  26.278  0.00  0.00    +0.121 A 
ATOM     28  C   UNL     1      -0.764  -1.277  26.340  0.00  0.00    +0.045 A 
ATOM     29  C   UNL     1      -0.151  -0.786  25.184  0.00  0.00    +0.004 A 
ATOM     30  C   UNL     1      -0.749  -0.968  23.950  0.00  0.00    +0.012 A 
BRANCH  19  20
ATOM     20  O   UNL     1      -2.539  -2.407  27.442  0.00  0.00    -0.489 OA
BRANCH  20  21
ATOM     21  C   UNL     1      -3.297  -3.618  27.316  0.00  0.00    +0.262 C 
BRANCH  21  22
ATOM     22  C   UNL     1      -4.007  -3.980  28.642  0.00  0.00    +0.177 C 
BRANCH  22  26
ATOM     26  O   UNL     1      -3.563  -3.217  29.762  0.00  0.00    -0.386 OA
ATOM     27  H   UNL     1      -2.535  -3.374  29.907  0.00  0.00    +0.210 HD
ENDBRANCH  22  26
BRANCH  22  23
ATOM     23  C   UNL     1      -5.479  -3.635  28.558  0.00  0.00    +0.190 C 
BRANCH  23  24
ATOM     24  O   UNL     1      -6.112  -4.823  28.115  0.00  0.00    -0.392 OA
ATOM     25  H   UNL     1      -5.725  -5.098  27.178  0.00  0.00    +0.209 HD
ENDBRANCH  23  24
ENDBRANCH  22  23
ENDBRANCH  21  22
ENDBRANCH  20  21
ENDBRANCH  19  20
ENDBRANCH  16  17
BRANCH  16  15
ATOM      4  C   UNL     1      -3.262  -0.710  20.400  0.00  0.00    +0.131 A 
ATOM      5  N   UNL     1      -3.337   0.573  19.992  0.00  0.00    -0.218 N 
ATOM     13  N   UNL     1      -2.982   1.421  21.061  0.00  0.00    -0.172 NA
ATOM     14  C   UNL     1      -2.660   0.688  22.090  0.00  0.00    +0.148 A 
ATOM     15  C   UNL     1      -2.830  -0.678  21.722  0.00  0.00    +0.081 A 
BRANCH   5   6
ATOM      6  C   UNL     1      -3.795   0.989  18.734  0.00  0.00    +0.068 A 
ATOM      7  C   UNL     1      -3.017   1.604  17.756  0.00  0.00    +0.030 A 
ATOM      8  C   UNL     1      -3.626   1.982  16.567  0.00  0.00    +0.040 A 
ATOM      9  C   UNL     1      -4.993   1.758  16.363  0.00  0.00    +0.124 A 
ATOM     10  F   UNL     1      -5.600   2.113  15.223  0.00  0.00    -0.205 F 
ATOM     11  C   UNL     1      -5.757   1.161  17.336  0.00  0.00    +0.040 A 
ATOM     12  C   UNL     1      -5.159   0.795  18.519  0.00  0.00    +0.030 A 
ENDBRANCH   5   6
BRANCH   4   1
ATOM      1  N   UNL     1      -3.552  -1.830  19.656  0.00  0.00    -0.343 N 
ATOM      2  H   UNL     1      -3.878  -1.729  18.642  0.00  0.00    +0.144 HD
ATOM      3  H   UNL     1      -3.451  -2.802  20.091  0.00  0.00    +0.144 HD
ENDBRANCH   4   1
ENDBRANCH  16  15
TORSDOF 10
