REMARK  Name = 5AAB
REMARK  6 active torsions:
REMARK  status: ('A' for Active; 'I' for Inactive)
REMARK    1  A    between atoms: C_7  and  C_10
REMARK    2  A    between atoms: C_10  and  C_11
REMARK    3  A    between atoms: C_10  and  O_12
REMARK    4  A    between atoms: O_12  and  C_13
REMARK    5  A    between atoms: C_19  and  C_20
REMARK    6  A    between atoms: N_23  and  C_25
REMARK                            x       y       z     vdW  Elec       q    Type
REMARK                         _______ _______ _______ _____ _____    ______ ____
ROOT
ATOM      6  C   UNL     1      29.768  44.851   9.188  0.00  0.00    +0.161 A 
ATOM      7  C   UNL     1      28.770  44.655  10.207  0.00  0.00    +0.158 A 
ATOM      8  N   UNL     1      27.763  45.527  10.469  0.00  0.00    -0.236 NA
ATOM      9  C   UNL     1      27.677  46.668   9.727  0.00  0.00    +0.121 A 
ATOM     10  C   UNL     1      28.594  47.005   8.678  0.00  0.00    +0.007 A 
ATOM     23  N   UNL     1      28.813  43.490  10.995  0.00  0.00    -0.340 N 
ATOM     24  H   UNL     1      28.078  43.331  11.756  0.00  0.00    +0.144 HD
ATOM     25  H   UNL     1      29.581  42.763  10.833  0.00  0.00    +0.144 HD
ATOM     26  C   UNL     1      29.649  46.067   8.418  0.00  0.00    +0.059 A 
ENDROOT
BRANCH  10  11
ATOM     11  C   UNL     1      28.463  48.291   7.866  0.00  0.00    +0.021 A 
ATOM     12  C   UNL     1      27.333  49.094   7.716  0.00  0.00    +0.117 A 
ATOM     13  N   UNL     1      27.763  50.138   6.872  0.00  0.00    -0.268 N 
ATOM     21  N   UNL     1      28.996  50.015   6.535  0.00  0.00    -0.179 NA
ATOM     22  C   UNL     1      29.493  48.958   7.071  0.00  0.00    +0.143 A 
BRANCH  13  14
ATOM     14  C   UNL     1      26.932  51.274   6.396  0.00  0.00    +0.110 C 
ATOM     15  C   UNL     1      25.577  50.775   5.836  0.00  0.00    +0.042 C 
ATOM     16  C   UNL     1      24.743  51.983   5.352  0.00  0.00    +0.083 C 
ATOM     17  N   UNL     1      24.551  53.000   6.424  0.00  0.00    -0.316 NA
ATOM     18  H   UNL     1      24.041  53.844   6.008  0.00  0.00    +0.122 HD
ATOM     19  C   UNL     1      25.841  53.465   7.014  0.00  0.00    +0.083 C 
ATOM     20  C   UNL     1      26.705  52.291   7.536  0.00  0.00    +0.042 C 
ENDBRANCH  13  14
ENDBRANCH  10  11
BRANCH   6   5
ATOM      5  O   UNL     1      30.752  43.857   9.006  0.00  0.00    -0.481 OA
BRANCH   5   4
ATOM      4  C   UNL     1      32.070  44.034   8.367  0.00  0.00    +0.204 C 
ATOM     27  C   UNL     1      32.728  42.642   8.346  0.00  0.00    +0.057 C 
BRANCH   4   3
ATOM      1 CL   UNL     1      32.935  46.587   6.646  0.00  0.00    -0.083 Cl
ATOM      2  C   UNL     1      33.393  46.288   8.303  0.00  0.00    +0.049 A 
ATOM      3  C   UNL     1      32.978  45.106   9.059  0.00  0.00    +0.032 A 
ATOM     28  C   UNL     1      33.439  44.974  10.453  0.00  0.00    +0.084 A 
ATOM     29 CL   UNL     1      33.027  43.610  11.491  0.00  0.00    -0.080 Cl
ATOM     30  C   UNL     1      34.267  45.994  11.029  0.00  0.00    +0.142 A 
ATOM     31  F   UNL     1      34.698  45.901  12.291  0.00  0.00    -0.204 F 
ATOM     32  C   UNL     1      34.645  47.128  10.261  0.00  0.00    +0.041 A 
ATOM     33  C   UNL     1      34.214  47.272   8.918  0.00  0.00    +0.023 A 
ENDBRANCH   4   3
ENDBRANCH   5   4
ENDBRANCH   6   5
TORSDOF 5
