REMARK  Name = 5VC6
REMARK  8 active torsions:
REMARK  status: ('A' for Active; 'I' for Inactive)
REMARK    1  A    between atoms: C_2  and  C_5
REMARK    2  A    between atoms: N_3  and  C_4
REMARK    3  A    between atoms: N_7  and  C_8
REMARK    4  A    between atoms: C_14  and  C_15
REMARK    5  A    between atoms: C_14  and  C_16
REMARK    6  A    between atoms: N_21  and  C_22
REMARK    7  A    between atoms: C_25  and  N_28
REMARK    8  A    between atoms: N_31  and  C_32
REMARK                            x       y       z     vdW  Elec       q    Type
REMARK                         _______ _______ _______ _____ _____    ______ ____
ROOT
ATOM      3  C   UNL     1      48.569   2.712  10.482  0.00  0.00    +0.151 A 
ATOM      4  C   UNL     1      47.746   2.653  11.721  0.00  0.00    +0.018 A 
ATOM      5  C   UNL     1      47.671   1.809  13.019  0.00  0.00    -0.002 C 
ATOM      6  C   UNL     1      47.754   0.382  12.582  0.00  0.00    +0.016 C 
ATOM      7  C   UNL     1      48.757   2.106  14.045  0.00  0.00    +0.016 C 
ATOM      8  C   UNL     1      46.311   1.930  13.713  0.00  0.00    +0.050 C 
ATOM      9  C   UNL     1      45.585   3.257  13.564  0.00  0.00    -0.001 A 
ATOM     10  C   UNL     1      44.663   3.663  14.520  0.00  0.00    +0.120 A 
ATOM     11  N   UNL     1      44.000   4.841  14.392  0.00  0.00    -0.222 NA
ATOM     12  C   UNL     1      44.188   5.664  13.322  0.00  0.00    +0.220 A 
ATOM     13  N   UNL     1      43.476   6.798  13.298  0.00  0.00    -0.284 N 
ATOM     14  H   UNL     1      43.057   6.983  14.094  0.00  0.00    +0.155 HD
ATOM     28  N   UNL     1      45.086   5.295  12.374  0.00  0.00    -0.212 NA
ATOM     29  C   UNL     1      45.761   4.114  12.462  0.00  0.00    +0.097 A 
ATOM     30  C   UNL     1      46.771   3.737  11.461  0.00  0.00    +0.092 A 
ATOM     31  N   UNL     1      47.069   4.300  10.301  0.00  0.00    -0.264 N 
ATOM     32  C   UNL     1      46.475   5.406   9.530  0.00  0.00    +0.173 C 
ATOM     33  N   UNL     1      48.136   3.682   9.694  0.00  0.00    -0.166 NA
ENDROOT
BRANCH  13  15
ATOM     15  C   UNL     1      43.245   7.743  12.321  0.00  0.00    +0.034 A 
ATOM     16  C   UNL     1      44.175   7.902  11.254  0.00  0.00    +0.025 A 
ATOM     17  C   UNL     1      43.935   8.871  10.258  0.00  0.00    +0.025 A 
ATOM     18  C   UNL     1      42.764   9.706  10.332  0.00  0.00    +0.030 A 
ATOM     26  C   UNL     1      41.851   9.542  11.404  0.00  0.00    +0.025 A 
ATOM     27  C   UNL     1      42.096   8.594  12.381  0.00  0.00    +0.025 A 
BRANCH  18  19
ATOM     19  N   UNL     1      42.518  10.674   9.345  0.00  0.00    -0.328 N 
ATOM     20  C   UNL     1      42.093  10.132   8.032  0.00  0.00    +0.120 C 
ATOM     21  C   UNL     1      42.742  11.013   6.968  0.00  0.00    +0.103 C 
ATOM     22  N   UNL     1      42.273  12.324   7.395  0.00  0.00    -0.302 NA
ATOM     23  C   UNL     1      41.116  12.924   6.734  0.00  0.00    +0.105 C 
ATOM     24  C   UNL     1      42.818  12.903   8.629  0.00  0.00    +0.103 C 
ATOM     25  C   UNL     1      42.226  12.055   9.753  0.00  0.00    +0.120 C 
ENDBRANCH  18  19
ENDBRANCH  13  15
BRANCH   3   2
ATOM      1  O   UNL     1      50.392   1.471  11.061  0.00  0.00    -0.269 OA
ATOM      2  C   UNL     1      49.710   1.855  10.147  0.00  0.00    +0.264 C 
ATOM     34  N   UNL     1      49.968   1.575   8.875  0.00  0.00    -0.313 N 
ATOM     35  H   UNL     1      49.548   2.100   8.251  0.00  0.00    +0.149 HD
ATOM     36  C   UNL     1      51.176   0.898   8.438  0.00  0.00    +0.128 C 
ENDBRANCH   3   2
TORSDOF 3
