REMARK  Name = 4e4x_ligand
REMARK  11 active torsions:
REMARK  status: ('A' for Active; 'I' for Inactive)
REMARK    1  A    between atoms: N7_7  and  C11_11
REMARK    2  A    between atoms: C9_9  and  C13_13
REMARK    3  A    between atoms: C15_15  and  N21_21
REMARK    4  A    between atoms: N21_21  and  S23_23
REMARK    5  A    between atoms: N22_22  and  C29_29
REMARK    6  A    between atoms: S23_23  and  C24_24
REMARK    7  A    between atoms: C24_24  and  C27_27
REMARK    8  A    between atoms: C27_27  and  C28_28
REMARK    9  A    between atoms: C29_29  and  C30_30
REMARK   10  A    between atoms: C30_30  and  C31_31
REMARK   11  A    between atoms: C31_31  and  O32_32
REMARK                            x       y       z     vdW  Elec       q    Type
REMARK                         _______ _______ _______ _____ _____    ______ ____
ROOT
ATOM      1  N   UNL     1      19.261 -25.177  -1.608  0.00  0.00    -0.267 NA
ATOM      2  C   UNL     1      18.489 -26.252  -1.832  0.00  0.00    +0.103 A 
ATOM      3  C   UNL     1      17.117 -26.088  -2.101  0.00  0.00    +0.048 A 
ATOM      4  C   UNL     1      16.257 -27.233  -2.351  0.00  0.00    +0.035 A 
ATOM      5  C   UNL     1      14.885 -27.045  -2.619  0.00  0.00    +0.051 A 
ATOM     22  C   UNL     1      14.329 -25.742  -2.645  0.00  0.00    +0.227 A 
ATOM     23  O   UNL     1      13.132 -25.566  -2.879  0.00  0.00    -0.393 OA
ATOM     24  N   UNL     1      15.167 -24.677  -2.403  0.00  0.00    -0.198 N 
ATOM     25  C   UNL     1      14.609 -23.315  -2.425  0.00  0.00    +0.229 C 
ATOM     26  C   UNL     1      16.570 -24.803  -2.124  0.00  0.00    +0.163 A 
ATOM     27  N   UNL     1      17.362 -23.735  -1.897  0.00  0.00    -0.235 NA
ATOM     28  C   UNL     1      18.665 -23.974  -1.647  0.00  0.00    +0.176 A 
ATOM     29  N   UNL     1      19.461 -22.887  -1.419  0.00  0.00    -0.290 N 
ATOM     30  H   UNL     1      20.447 -23.075  -1.235  0.00  0.00    +0.188 HD
ENDROOT
BRANCH   5   6
ATOM      6  C   UNL     1      14.037 -28.212  -2.872  0.00  0.00    +0.037 A 
ATOM      7  C   UNL     1      13.626 -29.033  -1.808  0.00  0.00    +0.119 A 
ATOM      8  F   UNL     1      14.010 -28.740  -0.544  0.00  0.00    -0.198 F 
ATOM      9  C   UNL     1      12.817 -30.158  -2.053  0.00  0.00    +0.004 A 
ATOM     10  C   UNL     1      12.421 -30.463  -3.367  0.00  0.00    -0.005 A 
ATOM     11  C   UNL     1      12.830 -29.641  -4.434  0.00  0.00    +0.090 A 
ATOM     20  C   UNL     1      13.636 -28.517  -4.181  0.00  0.00    +0.151 A 
ATOM     21  F   UNL     1      14.029 -27.728  -5.206  0.00  0.00    -0.198 F 
BRANCH  11  12
ATOM     12  N   UNL     1      12.453 -29.934  -5.698  0.00  0.00    -0.194 N 
ATOM     13  H   UNL     1      12.775 -29.299  -6.428  0.00  0.00    +0.213 HD
BRANCH  12  14
ATOM     14  S   UNL     1      11.547 -31.183  -6.177  0.00  0.00    +0.059 S 
ATOM     15  O   UNL     1      11.222 -31.127  -7.609  0.00  0.00    -0.150 OA
ATOM     16  O   UNL     1      10.440 -31.463  -5.251  0.00  0.00    -0.150 OA
BRANCH  14  17
ATOM     17  C   UNL     1      12.735 -32.577  -5.985  0.00  0.00    +0.194 C 
BRANCH  17  18
ATOM     18  C   UNL     1      13.569 -32.804  -7.249  0.00  0.00    +0.022 C 
ATOM     19  C   UNL     1      14.593 -33.933  -7.096  0.00  0.00    +0.005 C 
ENDBRANCH  17  18
ENDBRANCH  14  17
ENDBRANCH  12  14
ENDBRANCH  11  12
ENDBRANCH   5   6
BRANCH  29  31
ATOM     31  C   UNL     1      19.053 -21.489  -1.411  0.00  0.00    +0.139 C 
BRANCH  31  32
ATOM     32  C   UNL     1      18.221 -21.126  -2.655  0.00  0.00    +0.053 C 
BRANCH  32  33
ATOM     33  C   UNL     1      17.945 -19.616  -2.779  0.00  0.00    +0.158 C 
BRANCH  33  34
ATOM     34  O   UNL     1      16.784 -19.394  -3.553  0.00  0.00    -0.395 OA
ATOM     35  H   UNL     1      16.623 -18.450  -3.623  0.00  0.00    +0.209 HD
ENDBRANCH  33  34
ENDBRANCH  32  33
ENDBRANCH  31  32
ENDBRANCH  29  31
TORSDOF 9
