REMARK  Name = 1unh_ligand
REMARK  1 active torsions:
REMARK  status: ('A' for Active; 'I' for Inactive)
REMARK    1  A    between atoms: C2_2  and  N24_20
REMARK                            x       y       z     vdW  Elec       q    Type
REMARK                         _______ _______ _______ _____ _____    ______ ____
ROOT
ATOM      1  C   UNL     1      40.853  17.978  30.493  0.00  0.00    +0.000 A 
ATOM      2  C   UNL     1      41.640  18.496  29.393  0.00  0.00    -0.005 A 
ATOM      3  C   UNL     1      42.385  19.663  29.647  0.00  0.00    -0.014 A 
ATOM      4  C   UNL     1      42.352  20.274  30.911  0.00  0.00    -0.011 A 
ATOM      5  C   UNL     1      41.587  19.764  31.975  0.00  0.00    -0.001 A 
ATOM      6  C   UNL     1      40.811  18.555  31.730  0.00  0.00    +0.002 A 
ATOM      7  N   UNL     1      39.999  17.891  32.612  0.00  0.00    -0.338 NA
ATOM      8  C   UNL     1      39.499  16.839  31.925  0.00  0.00    +0.081 C 
ATOM      9  C   UNL     1      38.614  15.923  32.540  0.00  0.00    +0.142 C 
ATOM     10  C   UNL     1      37.924  14.684  32.071  0.00  0.00    +0.084 A 
ATOM     11  C   UNL     1      37.846  13.970  30.794  0.00  0.00    +0.046 A 
ATOM     12  C   UNL     1      37.059  12.878  30.814  0.00  0.00    +0.008 A 
ATOM     13  C   UNL     1      36.328  12.475  32.027  0.00  0.00    +0.027 A 
ATOM     14  C   UNL     1      36.456  13.207  33.100  0.00  0.00    +0.047 A 
ATOM     15  C   UNL     1      37.203  14.284  33.185  0.00  0.00    +0.118 A 
ATOM     16  N   UNL     1      37.350  15.080  34.288  0.00  0.00    -0.199 N 
ATOM     17  H   UNL     1      36.935  14.975  35.192  0.00  0.00    +0.240 HD
ATOM     18  C   UNL     1      38.208  16.059  33.849  0.00  0.00    +0.319 C 
ATOM     19  O   UNL     1      38.666  17.021  34.535  0.00  0.00    -0.296 OA
ATOM     20  C   UNL     1      39.981  16.814  30.613  0.00  0.00    +0.119 C 
ENDROOT
BRANCH  20  21
ATOM     21  N   UNL     1      39.709  15.923  29.638  0.00  0.00    -0.090 NA
ATOM     22  O   UNL     1      40.239  16.141  28.365  0.00  0.00    -0.275 OA
ENDBRANCH  20  21
TORSDOF 1
