REMARK  Name = 6P68
REMARK  8 active torsions:
REMARK  status: ('A' for Active; 'I' for Inactive)
REMARK    1  A    between atoms: C10_1  and  O2_33
REMARK    2  A    between atoms: C17_4  and  C16_5
REMARK    3  A    between atoms: C16_5  and  N6_7
REMARK    4  A    between atoms: N7_10  and  C21_11
REMARK    5  A    between atoms: C21_11  and  C22_12
REMARK    6  A    between atoms: N1_16  and  C3_17
REMARK    7  A    between atoms: N5_27  and  C8_28
REMARK    8  A    between atoms: C12_35  and  O3_36
REMARK                            x       y       z     vdW  Elec       q    Type
REMARK                         _______ _______ _______ _____ _____    ______ ____
ROOT
ATOM     12  N   UNL     1     -32.911 -45.226 -46.740  0.00  0.00    -0.350 NA
ATOM     13  C   UNL     1     -32.726 -46.374 -46.072  0.00  0.00    +0.650 C 
ATOM     14  O   UNL     1     -33.598 -47.226 -46.021  0.00  0.00    -0.550 OA
ATOM     15  N   UNL     1     -31.506 -46.571 -45.494  0.00  0.00    -0.200 N 
ATOM     16  C   UNL     1     -31.279 -47.818 -44.776  0.00  0.00    -0.050 C 
ATOM     17  C   UNL     1     -30.535 -45.625 -45.482  0.00  0.00    +0.430 A 
ATOM     18  N   UNL     1     -30.751 -44.511 -46.181  0.00  0.00    -0.760 NA
ATOM     19  C   UNL     1     -29.864 -43.483 -46.234  0.00  0.00    +0.630 A 
ATOM     20  N   UNL     1     -28.713 -43.604 -45.531  0.00  0.00    -0.760 NA
ATOM     21  C   UNL     1     -28.448 -44.681 -44.827  0.00  0.00    +0.430 A 
ATOM     36  C   UNL     1     -29.349 -45.721 -44.762  0.00  0.00    -0.130 A 
ENDROOT
BRANCH  12   6
ATOM      1  C   UNL     1     -36.026 -43.633 -47.109  0.00  0.00    +0.185 A 
ATOM      4  C   UNL     1     -34.824 -44.053 -46.590  0.00  0.00    +0.200 A 
ATOM      5 CL   UNL     1     -34.283 -43.615 -45.168  0.00  0.00    -0.200 Cl
ATOM      6  C   UNL     1     -34.046 -44.894 -47.305  0.00  0.00    +0.050 A 
ATOM      7  C   UNL     1     -34.395 -45.336 -48.550  0.00  0.00    +0.200 A 
ATOM      8  C   UNL     1     -35.596 -44.926 -49.079  0.00  0.00    +0.185 A 
ATOM     11 CL   UNL     1     -33.470 -46.284 -49.348  0.00  0.00    -0.200 Cl
ATOM     37  C   UNL     1     -36.408 -44.080 -48.357  0.00  0.00    -0.130 A 
BRANCH   1   2
ATOM      2  O   UNL     1     -36.740 -42.791 -46.323  0.00  0.00    -0.365 OA
ATOM      3  C   UNL     1     -38.051 -42.411 -46.738  0.00  0.00    +0.030 C 
ENDBRANCH   1   2
BRANCH   8   9
ATOM      9  O   UNL     1     -35.880 -45.397 -50.309  0.00  0.00    -0.365 OA
ATOM     10  C   UNL     1     -37.144 -45.132 -50.897  0.00  0.00    +0.030 C 
ENDBRANCH   8   9
ENDBRANCH  12   6
BRANCH  21  22
ATOM     22  N   UNL     1     -27.302 -44.620 -44.184  0.00  0.00    -0.350 NA
ATOM     23  C   UNL     1     -26.693 -45.655 -43.645  0.00  0.00    +0.100 C 
ATOM     24  N   UNL     1     -27.171 -46.433 -42.691  0.00  0.00    -0.050 NA
ATOM     25  N   UNL     1     -26.361 -47.232 -42.425  0.00  0.00    -0.200 N 
ATOM     29  C   UNL     1     -25.254 -47.075 -43.143  0.00  0.00    +0.000 C 
ATOM     30  C   UNL     1     -25.472 -46.032 -43.915  0.00  0.00    +0.050 C 
ATOM     31  N   UNL     1     -24.675 -45.486 -44.827  0.00  0.00    -0.100 NA
BRANCH  31  32
ATOM     32  C   UNL     1     -23.472 -45.985 -45.061  0.00  0.00    +0.600 C 
ATOM     33  O   UNL     1     -22.991 -46.947 -44.483  0.00  0.00    -0.550 OA
BRANCH  32  34
ATOM     34  C   UNL     1     -22.664 -45.251 -46.120  0.00  0.00    -0.100 C 
ATOM     35  C   UNL     1     -23.509 -44.239 -46.886  0.00  0.00    -0.100 C 
ENDBRANCH  32  34
ENDBRANCH  31  32
BRANCH  25  26
ATOM     26  C   UNL     1     -26.562 -48.273 -41.430  0.00  0.00    +0.000 C 
BRANCH  26  27
ATOM     27  C   UNL     1     -27.550 -47.817 -40.371  0.00  0.00    +0.150 C 
ATOM     28  O   UNL     1     -27.546 -48.766 -39.312  0.00  0.00    -0.650 OA
ENDBRANCH  26  27
ENDBRANCH  25  26
ENDBRANCH  21  22
TORSDOF 8
