REMARK  Name = 4YTH
REMARK  7 active torsions:
REMARK  status: ('A' for Active; 'I' for Inactive)
REMARK    1  A    between atoms: C_5  and  C_20
REMARK    2  A    between atoms: N_8  and  C_9
REMARK    3  A    between atoms: C_9  and  C_10
REMARK    4  A    between atoms: C_9  and  C_11
REMARK    5  A    between atoms: C_9  and  C_19
REMARK    6  A    between atoms: N_12  and  C_13
REMARK    7  A    between atoms: C_13  and  C_14
REMARK                            x       y       z     vdW  Elec       q    Type
REMARK                         _______ _______ _______ _____ _____    ______ ____
ROOT
ATOM      1  F   UNL     1      12.263  17.424   4.486  0.00  0.00    -0.200 F 
ATOM      2  C   UNL     1      12.215  16.173   3.975  0.00  0.00    +0.181 A 
ATOM      3  C   UNL     1      13.167  15.159   4.400  0.00  0.00    +0.159 A 
ATOM      4  N   UNL     1      14.142  15.482   5.358  0.00  0.00    -0.313 N 
ATOM      5  H   UNL     1      14.096  16.473   5.760  0.00  0.00    +0.148 HD
ATOM     18  N   UNL     1      13.111  13.873   3.884  0.00  0.00    -0.210 NA
ATOM     19  C   UNL     1      12.140  13.585   2.972  0.00  0.00    +0.164 A 
ATOM     30  N   UNL     1      11.195  14.521   2.501  0.00  0.00    -0.233 NA
ATOM     31  C   UNL     1      11.247  15.804   3.016  0.00  0.00    +0.155 A 
ENDROOT
BRANCH  19  20
ATOM     20  C   UNL     1      12.053  12.209   2.517  0.00  0.00    +0.048 A 
ATOM     21  C   UNL     1      11.045  11.736   1.664  0.00  0.00    +0.125 A 
ATOM     22  N   UNL     1      11.230  10.370   1.421  0.00  0.00    -0.235 NA
ATOM     23  C   UNL     1      12.370   9.951   2.142  0.00  0.00    +0.161 A 
ATOM     24  N   UNL     1      12.899   8.667   2.150  0.00  0.00    -0.234 NA
ATOM     25  C   UNL     1      14.055   8.497   2.838  0.00  0.00    +0.133 A 
ATOM     26  C   UNL     1      14.681   9.590   3.529  0.00  0.00    +0.060 A 
ATOM     27 CL   UNL     1      16.107   9.248   4.388  0.00  0.00    -0.082 Cl
ATOM     28  C   UNL     1      14.152  10.870   3.545  0.00  0.00    +0.034 A 
ATOM     29  C   UNL     1      12.922  11.091   2.821  0.00  0.00    +0.033 A 
ENDBRANCH  19  20
BRANCH   4   6
ATOM      6  C   UNL     1      15.245  14.602   5.888  0.00  0.00    +0.104 C 
ATOM      7  C   UNL     1      14.654  13.529   6.808  0.00  0.00    +0.041 C 
ATOM     17  C   UNL     1      16.197  15.493   6.693  0.00  0.00    +0.041 C 
BRANCH   6   8
ATOM      8  C   UNL     1      16.033  14.003   4.688  0.00  0.00    +0.236 C 
ATOM      9  O   UNL     1      16.416  12.842   4.640  0.00  0.00    -0.274 OA
ATOM     10  N   UNL     1      16.236  14.861   3.629  0.00  0.00    -0.305 N 
ATOM     11  H   UNL     1      15.864  15.861   3.708  0.00  0.00    +0.149 HD
BRANCH  10  12
ATOM     12  C   UNL     1      16.927  14.480   2.415  0.00  0.00    +0.217 C 
BRANCH  12  13
ATOM     13  C   UNL     1      16.000  14.538   1.240  0.00  0.00    +0.405 C 
ATOM     14  F   UNL     1      16.599  14.145   0.131  0.00  0.00    -0.169 F 
ATOM     15  F   UNL     1      14.916  13.775   1.407  0.00  0.00    -0.169 F 
ATOM     16  F   UNL     1      15.540  15.752   1.017  0.00  0.00    -0.169 F 
ENDBRANCH  12  13
ENDBRANCH  10  12
ENDBRANCH   6   8
ENDBRANCH   4   6
TORSDOF 5
