REMARK  Name = 3tiy_ligand
REMARK  4 active torsions:
REMARK  status: ('A' for Active; 'I' for Inactive)
REMARK    1  A    between atoms: C13_1  and  O14_15
REMARK    2  A    between atoms: C15_2  and  O16_16
REMARK    3  A    between atoms: O01_3  and  C02_4
REMARK    4  A    between atoms: C08_10  and  O11_13
REMARK                            x       y       z     vdW  Elec       q    Type
REMARK                         _______ _______ _______ _____ _____    ______ ____
ROOT
ATOM      1  C   UNL     1     -94.732   9.767 -48.720  0.00  0.00    +0.114 A 
ATOM      4  C   UNL     1     -94.068   8.946 -47.800  0.00  0.00    +0.001 A 
ATOM      5  C   UNL     1     -92.979   8.098 -48.171  0.00  0.00    -0.038 A 
ATOM      6  C   UNL     1     -92.445   7.358 -47.083  0.00  0.00    -0.014 A 
ATOM      7  C   UNL     1     -91.397   6.436 -47.028  0.00  0.00    -0.006 A 
ATOM      8  C   UNL     1     -90.576   6.013 -48.062  0.00  0.00    +0.035 A 
ATOM      9  C   UNL     1     -90.601   6.389 -49.407  0.00  0.00    +0.151 A 
ATOM     12  C   UNL     1     -91.465   7.304 -50.065  0.00  0.00    +0.164 A 
ATOM     13  O   UNL     1     -91.203   7.400 -51.300  0.00  0.00    -0.406 OA
ATOM     14  C   UNL     1     -92.541   8.089 -49.543  0.00  0.00    +0.051 A 
ATOM     15  C   UNL     1     -93.257   8.950 -50.451  0.00  0.00    +0.129 A 
ATOM     18  C   UNL     1     -94.322   9.763 -50.063  0.00  0.00    +0.152 A 
ENDROOT
BRANCH   1   2
ATOM      2  O   UNL     1     -95.760  10.535 -48.298  0.00  0.00    -0.336 OA
ATOM      3  H   UNL     1     -96.105  11.031 -49.031  0.00  0.00    +0.246 HD
ENDBRANCH   1   2
BRANCH   9  10
ATOM     10  O   UNL     1     -89.633   5.744 -50.127  0.00  0.00    -0.315 OA
ATOM     11  H   UNL     1     -90.041   5.231 -50.815  0.00  0.00    +0.258 HD
ENDBRANCH   9  10
BRANCH  15  16
ATOM     16  O   UNL     1     -92.995   9.073 -51.771  0.00  0.00    -0.335 OA
ATOM     17  H   UNL     1     -92.267   8.508 -52.002  0.00  0.00    +0.246 HD
ENDBRANCH  15  16
BRANCH  18  19
ATOM     19  O   UNL     1     -94.923  10.532 -51.009  0.00  0.00    -0.339 OA
ATOM     20  H   UNL     1     -95.626  11.031 -50.610  0.00  0.00    +0.241 HD
ENDBRANCH  18  19
TORSDOF 4
