REMARK  Name = 5BYY
REMARK  8 active torsions:
REMARK  status: ('A' for Active; 'I' for Inactive)
REMARK    1  A    between atoms: C_1  and  O_30
REMARK    2  A    between atoms: C_1  and  C_31
REMARK    3  A    between atoms: C_2  and  O_30
REMARK    4  A    between atoms: C_4  and  N_32
REMARK    5  A    between atoms: C_7  and  N_29
REMARK    6  A    between atoms: C_15  and  N_20
REMARK    7  A    between atoms: C_17  and  O_34
REMARK    8  A    between atoms: N_26  and  C_27
REMARK                            x       y       z     vdW  Elec       q    Type
REMARK                         _______ _______ _______ _____ _____    ______ ____
ROOT
ATOM      6  N   UNL     1       4.226 -46.168 -10.469  0.00  0.00    -0.209 NA
ATOM      7  C   UNL     1       3.759 -44.885 -10.506  0.00  0.00    +0.230 C 
ATOM      8  N   UNL     1       3.275 -44.433  -9.336  0.00  0.00    -0.309 N 
ATOM      9  H   UNL     1       3.265 -45.058  -8.468  0.00  0.00    +0.170 HD
ATOM     10  C   UNL     1       2.806 -43.180  -9.286  0.00  0.00    +0.140 C 
ATOM     11  N   UNL     1       2.280 -42.678  -8.037  0.00  0.00    -0.328 NA
ATOM     12  C   UNL     1       1.652 -43.649  -7.138  0.00  0.00    +0.151 C 
ATOM     13  C   UNL     1       3.101 -41.619  -7.451  0.00  0.00    +0.056 C 
ATOM     14  C   UNL     1       3.797 -41.804  -6.256  0.00  0.00    +0.026 C 
ATOM     15  C   UNL     1       4.557 -40.772  -5.731  0.00  0.00    +0.002 C 
ATOM     16  C   UNL     1       4.635 -39.561  -6.382  0.00  0.00    +0.001 C 
ATOM     17  C   UNL     1       3.952 -39.360  -7.571  0.00  0.00    +0.015 C 
ATOM     18  C   UNL     1       3.178 -40.382  -8.124  0.00  0.00    +0.063 C 
ATOM     19  C   UNL     1       2.479 -40.036  -9.407  0.00  0.00    +0.261 C 
ATOM     20  N   UNL     1       2.313 -40.988 -10.477  0.00  0.00    -0.307 N 
ATOM     21  C   UNL     1       1.607 -40.532 -11.675  0.00  0.00    +0.153 C 
ATOM     22  O   UNL     1       2.017 -38.915  -9.559  0.00  0.00    -0.267 OA
ATOM     23  C   UNL     1       2.795 -42.328 -10.443  0.00  0.00    +0.104 C 
ATOM     24  C   UNL     1       3.326 -42.937 -11.589  0.00  0.00    +0.144 C 
ATOM     25  N   UNL     1       3.806 -44.188 -11.652  0.00  0.00    -0.219 NA
ENDROOT
BRANCH   6   5
ATOM      4  C   UNL     1       4.235 -48.494  -9.711  0.00  0.00    +0.148 A 
ATOM      5  C   UNL     1       4.303 -47.111  -9.425  0.00  0.00    +0.109 A 
ATOM     26  C   UNL     1       4.409 -46.711  -8.095  0.00  0.00    +0.033 A 
ATOM     27  C   UNL     1       4.458 -47.645  -7.081  0.00  0.00    +0.025 A 
ATOM     28  C   UNL     1       4.410 -49.010  -7.354  0.00  0.00    +0.033 A 
ATOM     37  C   UNL     1       4.308 -49.426  -8.688  0.00  0.00    +0.070 A 
BRANCH  28  29
ATOM     29  N   UNL     1       4.478 -49.929  -6.313  0.00  0.00    -0.330 N 
ATOM     30  C   UNL     1       5.535 -49.838  -5.300  0.00  0.00    +0.107 C 
ATOM     31  C   UNL     1       4.943 -50.037  -3.909  0.00  0.00    +0.050 C 
ATOM     32  C   UNL     1       4.213 -51.358  -3.831  0.00  0.00    +0.117 C 
ATOM     33  C   UNL     1       3.139 -51.426  -4.894  0.00  0.00    +0.050 C 
ATOM     36  C   UNL     1       3.727 -51.189  -6.288  0.00  0.00    +0.107 C 
BRANCH  32  34
ATOM     34  O   UNL     1       3.647 -51.527  -2.531  0.00  0.00    -0.392 OA
ATOM     35  H   UNL     1       4.411 -51.512  -1.811  0.00  0.00    +0.210 HD
ENDBRANCH  32  34
ENDBRANCH  28  29
BRANCH   4   3
ATOM      3  O   UNL     1       4.152 -48.833 -11.035  0.00  0.00    -0.490 OA
BRANCH   3   1
ATOM      1  C   UNL     1       3.036 -49.594 -11.505  0.00  0.00    +0.226 C 
ATOM      2  C   UNL     1       3.230 -49.814 -12.950  0.00  0.00    +0.048 C 
ENDBRANCH   3   1
ENDBRANCH   4   3
ENDBRANCH   6   5
TORSDOF 5
