REMARK  Name = 4ded_ligand
REMARK  5 active torsions:
REMARK  status: ('A' for Active; 'I' for Inactive)
REMARK    1  A    between atoms: N01_1  and  C09_11
REMARK    2  A    between atoms: N04_4  and  C13_15
REMARK    3  A    between atoms: N04_4  and  C16_18
REMARK    4  A    between atoms: C06_7  and  C11_13
REMARK    5  A    between atoms: C21_23  and  C22_24
REMARK                            x       y       z     vdW  Elec       q    Type
REMARK                         _______ _______ _______ _____ _____    ______ ____
ROOT
ATOM      1  N   UNL     1      -3.062 -32.835   6.824  0.00  0.00    -0.241 N 
ATOM      2  H   UNL     1      -3.207 -33.659   7.407  0.00  0.00    +0.219 HD
ATOM      3  C   UNL     1      -3.427 -31.699   7.337  0.00  0.00    +0.197 A 
ATOM      4  N   UNL     1      -3.421 -31.638   8.690  0.00  0.00    -0.268 NA
ATOM      5  C   UNL     1      -3.812 -30.454   9.248  0.00  0.00    +0.087 A 
ATOM      6  C   UNL     1      -4.206 -29.333   8.520  0.00  0.00    +0.058 A 
ATOM      7  C   UNL     1      -4.181 -29.486   7.131  0.00  0.00    +0.136 A 
ATOM     21  N   UNL     1      -3.794 -30.667   6.519  0.00  0.00    -0.234 NA
ENDROOT
BRANCH   1  22
ATOM     22  C   UNL     1      -2.531 -33.047   5.649  0.00  0.00    +0.070 A 
ATOM     23  C   UNL     1      -1.340 -33.811   5.563  0.00  0.00    +0.023 A 
ATOM     24  C   UNL     1      -0.747 -34.073   4.297  0.00  0.00    +0.013 A 
ATOM     25  C   UNL     1      -1.342 -33.573   3.092  0.00  0.00    +0.038 A 
ATOM     31  C   UNL     1      -2.533 -32.809   3.173  0.00  0.00    +0.013 A 
ATOM     32  C   UNL     1      -3.124 -32.550   4.439  0.00  0.00    +0.023 A 
BRANCH  25  26
ATOM     26  C   UNL     1      -0.771 -33.824   1.867  0.00  0.00    +0.194 C 
ATOM     27  O   UNL     1      -0.385 -34.937   1.569  0.00  0.00    -0.390 OA
ATOM     28  N   UNL     1      -0.623 -32.737   0.899  0.00  0.00    -0.302 N 
ATOM     29  H   UNL     1      -0.942 -31.797   1.135  0.00  0.00    +0.180 HD
ATOM     30  H   UNL     1      -0.201 -32.919  -0.011  0.00  0.00    +0.180 HD
ENDBRANCH  25  26
ENDBRANCH   1  22
BRANCH   7   8
ATOM      8  N   UNL     1      -4.537 -28.438   6.413  0.00  0.00    -0.251 N 
ATOM      9  H   UNL     1      -4.471 -27.530   6.873  0.00  0.00    +0.218 HD
BRANCH   8  10
ATOM     10  C   UNL     1      -4.969 -28.432   5.166  0.00  0.00    +0.085 A 
ATOM     11  C   UNL     1      -6.243 -27.809   4.838  0.00  0.00    +0.073 A 
ATOM     17  C   UNL     1      -6.693 -27.806   3.478  0.00  0.00    +0.013 A 
ATOM     18  C   UNL     1      -5.910 -28.405   2.450  0.00  0.00    -0.014 A 
ATOM     19  C   UNL     1      -4.668 -29.011   2.762  0.00  0.00    -0.005 A 
ATOM     20  C   UNL     1      -4.199 -29.024   4.103  0.00  0.00    +0.023 A 
BRANCH  11  12
ATOM     12  C   UNL     1      -7.028 -27.216   5.801  0.00  0.00    +0.196 C 
ATOM     13  O   UNL     1      -7.547 -27.877   6.676  0.00  0.00    -0.391 OA
ATOM     14  N   UNL     1      -7.256 -25.767   5.764  0.00  0.00    -0.302 N 
ATOM     15  H   UNL     1      -6.825 -25.201   5.033  0.00  0.00    +0.180 HD
ATOM     16  H   UNL     1      -7.846 -25.325   6.469  0.00  0.00    +0.180 HD
ENDBRANCH  11  12
ENDBRANCH   8  10
ENDBRANCH   7   8
TORSDOF 5
