REMARK  Name = 3PF
REMARK  0 active torsions:
REMARK  status: ('A' for Active; 'I' for Inactive)
REMARK                            x       y       z     vdW  Elec       q    Type
REMARK                         _______ _______ _______ _____ _____    ______ ____
ROOT
ATOM      1  C   UNL     1      19.017   8.404  -6.949  0.00  0.00    +0.117 C 
ATOM      2  N   UNL     1      19.444   8.931  -8.219  0.00  0.00    -0.257 N 
ATOM      3  C   UNL     1      20.725   8.745  -8.587  0.00  0.00    +0.328 C 
ATOM      4  O   UNL     1      21.546   8.184  -7.872  0.00  0.00    -0.250 OA
ATOM      5  N   UNL     1      21.057   9.240  -9.812  0.00  0.00    -0.163 NA
ATOM      6  C   UNL     1      20.269  10.140 -10.526  0.00  0.00    +0.072 A 
ATOM      7  C   UNL     1      18.923  10.278 -10.183  0.00  0.00    +0.013 A 
ATOM      8  C   UNL     1      18.145  11.172 -10.889  0.00  0.00    -0.001 A 
ATOM      9  C   UNL     1      18.685  11.917 -11.913  0.00  0.00    -0.000 A 
ATOM     10  C   UNL     1      20.013  11.779 -12.247  0.00  0.00    +0.001 A 
ATOM     11  C   UNL     1      20.804  10.890 -11.550  0.00  0.00    +0.016 A 
ATOM     12  C   UNL     1      18.388   9.449  -9.075  0.00  0.00    +0.123 C 
ENDROOT
TORSDOF 0
