REMARK  Name = 5HNI
REMARK  5 active torsions:
REMARK  status: ('A' for Active; 'I' for Inactive)
REMARK    1  A    between atoms: C_3  and  C_6
REMARK    2  A    between atoms: C_4  and  S_16
REMARK    3  A    between atoms: C_12  and  O_30
REMARK    4  A    between atoms: C_13  and  S_16
REMARK    5  A    between atoms: C_29  and  O_30
REMARK                            x       y       z     vdW  Elec       q    Type
REMARK                         _______ _______ _______ _____ _____    ______ ____
ROOT
ATOM      1  N   UNL     1     -21.226 -33.446 -38.462  0.00  0.00    -0.212 NA
ATOM      2  N   UNL     1     -21.978 -34.321 -37.898  0.00  0.00    -0.289 NA
ATOM      3  H   UNL     1     -21.787 -35.361 -38.059  0.00  0.00    +0.188 HD
ATOM      4  C   UNL     1     -23.024 -33.944 -37.091  0.00  0.00    +0.063 C 
ATOM     12  C   UNL     1     -23.252 -32.453 -36.890  0.00  0.00    +0.031 C 
ATOM     13  C   UNL     1     -22.424 -31.553 -37.511  0.00  0.00    +0.050 C 
ATOM     14  C   UNL     1     -21.332 -32.102 -38.360  0.00  0.00    +0.149 C 
ATOM     15  N   UNL     1     -20.376 -31.506 -39.086  0.00  0.00    -0.258 NA
ATOM     16  H   UNL     1     -20.225 -30.451 -39.185  0.00  0.00    +0.191 HD
ATOM     17  N   UNL     1     -19.688 -32.406 -39.630  0.00  0.00    -0.145 NA
ATOM     18  C   UNL     1     -20.180 -33.609 -39.270  0.00  0.00    +0.213 C 
ENDROOT
BRANCH   4   5
ATOM      5  C   UNL     1     -23.881 -34.961 -36.451  0.00  0.00    -0.000 A 
ATOM      6  C   UNL     1     -23.801 -35.208 -35.054  0.00  0.00    +0.013 A 
ATOM      7  C   UNL     1     -24.624 -36.189 -34.449  0.00  0.00    +0.039 A 
ATOM      8  C   UNL     1     -25.527 -36.922 -35.246  0.00  0.00    +0.123 A 
ATOM      9  F   UNL     1     -26.303 -37.854 -34.657  0.00  0.00    -0.205 F 
ATOM     10  C   UNL     1     -25.633 -36.701 -36.638  0.00  0.00    +0.039 A 
ATOM     11  C   UNL     1     -24.802 -35.712 -37.241  0.00  0.00    +0.013 A 
ENDBRANCH   4   5
BRANCH  18  19
ATOM     19  S   UNL     1     -19.580 -35.204 -39.751  0.00  0.00    -0.048 S 
BRANCH  19  20
ATOM     20  C   UNL     1     -18.864 -36.037 -38.357  0.00  0.00    +0.018 A 
ATOM     21  C   UNL     1     -17.497 -35.836 -38.016  0.00  0.00    +0.017 A 
ATOM     22  C   UNL     1     -16.939 -36.509 -36.893  0.00  0.00    +0.029 A 
ATOM     23  C   UNL     1     -17.731 -37.364 -36.122  0.00  0.00    +0.068 A 
ATOM     24  N   UNL     1     -17.482 -38.135 -35.009  0.00  0.00    -0.326 N 
ATOM     25  H   UNL     1     -16.548 -38.219 -34.494  0.00  0.00    +0.169 HD
ATOM     26  C   UNL     1     -18.633 -38.767 -34.685  0.00  0.00    +0.203 A 
ATOM     27  N   UNL     1     -18.687 -39.687 -33.508  0.00  0.00    -0.221 N 
ATOM     28  H   UNL     1     -17.834 -39.877 -32.891  0.00  0.00    +0.161 HD
ATOM     29  C   UNL     1     -19.911 -40.274 -33.273  0.00  0.00    +0.406 C 
ATOM     30  O   UNL     1     -20.436 -40.987 -34.091  0.00  0.00    -0.226 OA
ATOM     33  N   UNL     1     -19.630 -38.447 -35.538  0.00  0.00    -0.214 NA
ATOM     34  C   UNL     1     -19.113 -37.567 -36.464  0.00  0.00    +0.092 A 
ATOM     35  C   UNL     1     -19.664 -36.911 -37.563  0.00  0.00    +0.045 A 
BRANCH  29  31
ATOM     31  O   UNL     1     -20.577 -40.088 -32.133  0.00  0.00    -0.453 OA
ATOM     32  C   UNL     1     -20.533 -41.029 -31.059  0.00  0.00    +0.282 C 
ENDBRANCH  29  31
ENDBRANCH  19  20
ENDBRANCH  18  19
TORSDOF 4
