REMARK  Name = 5K4J
REMARK  7 active torsions:
REMARK  status: ('A' for Active; 'I' for Inactive)
REMARK    1  A    between atoms: C_7  and  N_21
REMARK    2  A    between atoms: C_7  and  C_24
REMARK    3  A    between atoms: C_7  and  C_26
REMARK    4  A    between atoms: C_10  and  N_11
REMARK    5  A    between atoms: C_12  and  N_14
REMARK    6  A    between atoms: C_17  and  C_19
REMARK    7  A    between atoms: C_24  and  O_25
REMARK                            x       y       z     vdW  Elec       q    Type
REMARK                         _______ _______ _______ _____ _____    ______ ____
ROOT
ATOM      8  C   UNL     1       0.610 -29.301  45.822  0.00  0.00    +0.007 C 
ATOM      9  C   UNL     1       1.675 -29.794  46.536  0.00  0.00    +0.080 C 
ATOM     10  C   UNL     1       2.244 -28.971  47.529  0.00  0.00    +0.253 C 
ATOM     11  O   UNL     1       3.152 -29.405  48.233  0.00  0.00    -0.268 OA
ATOM     12  N   UNL     1       1.759 -27.734  47.747  0.00  0.00    -0.306 N 
ATOM     13  C   UNL     1       0.759 -27.210  47.010  0.00  0.00    +0.090 C 
ATOM     26  C   UNL     1       0.164 -27.977  46.068  0.00  0.00    +0.028 C 
ENDROOT
BRANCH   8   7
ATOM      3  N   UNL     1      -3.076 -29.540  42.934  0.00  0.00    -0.269 N 
ATOM      4  H   UNL     1      -3.533 -30.006  42.086  0.00  0.00    +0.156 HD
ATOM      5  C   UNL     1      -1.979 -30.167  43.433  0.00  0.00    +0.221 A 
ATOM      6  N   UNL     1      -1.214 -29.509  44.313  0.00  0.00    -0.214 NA
ATOM      7  C   UNL     1      -0.136 -30.111  44.820  0.00  0.00    +0.076 A 
ATOM     27  C   UNL     1       0.186 -31.455  44.496  0.00  0.00    +0.048 A 
ATOM     28  C   UNL     1      -0.669 -32.125  43.620  0.00  0.00    +0.116 A 
ATOM     29  N   UNL     1      -1.727 -31.418  43.066  0.00  0.00    -0.223 NA
BRANCH   3   2
ATOM      1  C   UNL     1      -3.639 -27.788  44.621  0.00  0.00    +0.065 A 
ATOM      2  C   UNL     1      -3.681 -28.373  43.381  0.00  0.00    +0.123 A 
ATOM     30  N   UNL     1      -4.493 -27.581  42.599  0.00  0.00    -0.254 N 
ATOM     31  N   UNL     1      -4.936 -26.487  43.388  0.00  0.00    -0.178 NA
ATOM     32  C   UNL     1      -4.848 -27.767  41.186  0.00  0.00    +0.174 C 
ATOM     33  C   UNL     1      -4.405 -26.607  44.585  0.00  0.00    +0.136 A 
ENDBRANCH   3   2
ENDBRANCH   8   7
BRANCH  12  14
ATOM     14  C   UNL     1       2.298 -26.960  48.873  0.00  0.00    +0.145 C 
BRANCH  14  15
ATOM     15  C   UNL     1       3.649 -26.357  48.593  0.00  0.00    -0.020 A 
ATOM     16  C   UNL     1       3.914 -25.522  47.535  0.00  0.00    +0.045 A 
ATOM     17  C   UNL     1       5.215 -25.039  47.381  0.00  0.00    +0.142 A 
ATOM     18  F   UNL     1       5.526 -24.232  46.344  0.00  0.00    -0.204 F 
ATOM     19  C   UNL     1       6.221 -25.391  48.275  0.00  0.00    +0.076 A 
ATOM     20 CL   UNL     1       7.844 -24.802  48.093  0.00  0.00    -0.081 Cl
ATOM     21  C   UNL     1       5.932 -26.214  49.342  0.00  0.00    +0.023 A 
ATOM     22  C   UNL     1       4.651 -26.694  49.482  0.00  0.00    +0.007 A 
ENDBRANCH  14  15
BRANCH  14  23
ATOM     23  C   UNL     1       1.209 -26.004  49.447  0.00  0.00    +0.185 C 
BRANCH  23  24
ATOM     24  O   UNL     1       1.531 -25.727  50.835  0.00  0.00    -0.393 OA
ATOM     25  H   UNL     1       1.543 -26.626  51.378  0.00  0.00    +0.209 HD
ENDBRANCH  23  24
ENDBRANCH  14  23
ENDBRANCH  12  14
TORSDOF 6
