REMARK  Name = 4l3p_ligand
REMARK  4 active torsions:
REMARK  status: ('A' for Active; 'I' for Inactive)
REMARK    1  A    between atoms: N19_1  and  C18_2
REMARK    2  A    between atoms: C15_7  and  C20_20
REMARK    3  A    between atoms: C10_10  and  C3_11
REMARK    4  A    between atoms: N23_22  and  C25_25
REMARK                            x       y       z     vdW  Elec       q    Type
REMARK                         _______ _______ _______ _____ _____    ______ ____
ROOT
ATOM      4  C   UNL     1     -13.582 -47.054 -15.179  0.00  0.00    +0.136 A 
ATOM      5  N   UNL     1     -14.808 -46.417 -15.095  0.00  0.00    -0.310 NA
ATOM      6  C   UNL     1     -15.882 -46.803 -15.892  0.00  0.00    +0.036 A 
ATOM      7  C   UNL     1     -15.769 -47.851 -16.815  0.00  0.00    -0.033 A 
ATOM     21  C   UNL     1     -14.515 -48.470 -16.869  0.00  0.00    -0.001 A 
ATOM     22  C   UNL     1     -13.934 -49.491 -17.571  0.00  0.00    +0.002 A 
ATOM     23  C   UNL     1     -12.630 -49.607 -17.128  0.00  0.00    +0.125 A 
ATOM     33  O   UNL     1     -12.455 -48.750 -16.274  0.00  0.00    -0.249 OA
ATOM     34  C   UNL     1     -13.461 -48.085 -16.077  0.00  0.00    +0.166 A 
ENDROOT
BRANCH  23  24
ATOM     24  C   UNL     1     -11.559 -50.533 -17.575  0.00  0.00    +0.031 A 
ATOM     25  C   UNL     1     -10.321 -50.561 -16.929  0.00  0.00    +0.051 A 
ATOM     26  C   UNL     1      -9.307 -51.412 -17.352  0.00  0.00    -0.024 A 
ATOM     27  C   UNL     1      -8.171 -51.288 -16.561  0.00  0.00    -0.019 A 
ATOM     28  C   UNL     1      -8.338 -50.357 -15.563  0.00  0.00    +0.077 A 
ATOM     29  C   UNL     1      -9.492 -52.246 -18.442  0.00  0.00    -0.009 A 
ATOM     30  C   UNL     1     -10.716 -52.221 -19.109  0.00  0.00    -0.014 A 
ATOM     31  S   UNL     1      -9.802 -49.724 -15.647  0.00  0.00    -0.035 S 
ATOM     32  C   UNL     1     -11.739 -51.367 -18.683  0.00  0.00    -0.001 A 
ENDBRANCH  23  24
BRANCH   7   8
ATOM      8  C   UNL     1     -16.962 -48.207 -17.647  0.00  0.00    -0.006 A 
ATOM      9  C   UNL     1     -17.070 -49.013 -18.760  0.00  0.00    +0.071 A 
ATOM     10  N   UNL     1     -18.355 -49.023 -19.176  0.00  0.00    -0.214 NA
ATOM     11  N   UNL     1     -19.024 -48.286 -18.403  0.00  0.00    -0.201 N 
ATOM     20  C   UNL     1     -18.244 -47.757 -17.455  0.00  0.00    +0.162 A 
BRANCH  11  12
ATOM     12  C   UNL     1     -20.471 -48.011 -18.485  0.00  0.00    +0.160 C 
ATOM     13  C   UNL     1     -21.245 -49.051 -19.294  0.00  0.00    +0.090 C 
ATOM     14  C   UNL     1     -22.739 -48.692 -19.280  0.00  0.00    +0.132 C 
ATOM     15  N   UNL     1     -22.991 -47.308 -19.743  0.00  0.00    +0.227 N 
ATOM     16  H   UNL     1     -23.962 -47.099 -19.569  0.00  0.00    +0.201 HD
ATOM     17  H   UNL     1     -22.813 -47.279 -20.735  0.00  0.00    +0.201 HD
ATOM     18  C   UNL     1     -22.184 -46.249 -19.112  0.00  0.00    +0.132 C 
ATOM     19  C   UNL     1     -20.696 -46.622 -19.110  0.00  0.00    +0.090 C 
ENDBRANCH  11  12
ENDBRANCH   7   8
BRANCH   4   1
ATOM      1  N   UNL     1     -12.490 -46.671 -14.374  0.00  0.00    -0.326 N 
ATOM      2  H   UNL     1     -11.591 -47.166 -14.457  0.00  0.00    +0.174 HD
ATOM      3  H   UNL     1     -12.592 -45.896 -13.703  0.00  0.00    +0.174 HD
ENDBRANCH   4   1
TORSDOF 4
