REMARK  Name = 435
REMARK  4 active torsions:
REMARK  status: ('A' for Active; 'I' for Inactive)
REMARK    1  A    between atoms: C3_3  and  N9_9
REMARK    2  A    between atoms: N10_10  and  C11_11
REMARK    3  A    between atoms: C14_14  and  S17_17
REMARK    4  A    between atoms: S17_17  and  N20_20
REMARK                            x       y       z     vdW  Elec       q    Type
REMARK                         _______ _______ _______ _____ _____    ______ ____
ROOT
ATOM      7  C   UNL     1     -15.876   7.262  -6.185  0.00  0.00    +0.103 A 
ATOM      8  C   UNL     1     -16.686   7.159  -5.084  0.00  0.00    +0.022 A 
ATOM      9  C   UNL     1     -17.083   5.888  -4.647  0.00  0.00    +0.022 A 
ATOM     10  C   UNL     1     -16.619   4.684  -5.274  0.00  0.00    +0.127 A 
ATOM     21  C   UNL     1     -15.750   4.848  -6.367  0.00  0.00    +0.022 A 
ATOM     22  C   UNL     1     -15.363   6.091  -6.770  0.00  0.00    +0.022 A 
ENDROOT
BRANCH  10  11
ATOM     11  S   UNL     1     -16.990   3.158  -4.746  0.00  0.00    +0.094 S 
ATOM     12  O   UNL     1     -18.099   3.417  -3.799  0.00  0.00    -0.148 OA
ATOM     20  O   UNL     1     -17.261   2.318  -5.924  0.00  0.00    -0.148 OA
BRANCH  11  13
ATOM     13  N   UNL     1     -15.701   2.444  -4.031  0.00  0.00    -0.077 NA
ATOM     14  C   UNL     1     -15.115   2.831  -2.889  0.00  0.00    +0.172 A 
ATOM     15  C   UNL     1     -15.694   3.792  -2.041  0.00  0.00    +0.038 A 
ATOM     16  C   UNL     1     -14.990   4.159  -0.894  0.00  0.00    +0.005 A 
ATOM     17  C   UNL     1     -13.746   3.570  -0.616  0.00  0.00    +0.021 A 
ATOM     18  C   UNL     1     -13.222   2.610  -1.496  0.00  0.00    +0.100 A 
ATOM     19  N   UNL     1     -13.901   2.275  -2.602  0.00  0.00    -0.226 NA
ENDBRANCH  11  13
ENDBRANCH  10  11
BRANCH   7   6
ATOM      5  N   UNL     1     -15.898   9.587  -6.169  0.00  0.00    -0.148 NA
ATOM      6  N   UNL     1     -15.398   8.514  -6.635  0.00  0.00    -0.148 NA
BRANCH   5   4
ATOM      1  C   UNL     1     -15.286  13.223  -6.467  0.00  0.00    +0.018 A 
ATOM      2  C   UNL     1     -15.900  14.497  -5.951  0.00  0.00    +0.034 C 
ATOM      3  C   UNL     1     -15.805  11.999  -6.117  0.00  0.00    +0.020 A 
ATOM      4  C   UNL     1     -15.315  10.803  -6.603  0.00  0.00    +0.102 A 
ATOM     23  C   UNL     1     -14.163  10.827  -7.401  0.00  0.00    +0.020 A 
ATOM     24  C   UNL     1     -13.573  12.065  -7.723  0.00  0.00    +0.018 A 
ATOM     25  C   UNL     1     -12.384  12.114  -8.608  0.00  0.00    +0.034 C 
ATOM     26  C   UNL     1     -14.148  13.257  -7.237  0.00  0.00    +0.188 A 
ATOM     27  O   UNL     1     -13.568  14.469  -7.562  0.00  0.00    -0.287 OA
ENDBRANCH   5   4
ENDBRANCH   7   6
TORSDOF 4
