REMARK  Name = 3lhj_ligand
REMARK  6 active torsions:
REMARK  status: ('A' for Active; 'I' for Inactive)
REMARK    1  A    between atoms: N1_1  and  C7_6
REMARK    2  A    between atoms: N3_2  and  C9_27
REMARK    3  A    between atoms: C4_3  and  C8_7
REMARK    4  A    between atoms: C20_12  and  C19_21
REMARK    5  A    between atoms: C21_13  and  C16_19
REMARK    6  A    between atoms: C22_14  and  N4_17
REMARK                            x       y       z     vdW  Elec       q    Type
REMARK                         _______ _______ _______ _____ _____    ______ ____
ROOT
ATOM      1  N   UNL     1      -0.971  10.979  29.903  0.00  0.00    -0.182 N 
ATOM      2  C   UNL     1      -0.846   9.700  29.295  0.00  0.00    +0.239 A 
ATOM      3  C   UNL     1      -1.868   9.229  28.477  0.00  0.00    +0.040 A 
ATOM      4  C   UNL     1      -1.496   8.034  28.050  0.00  0.00    +0.069 A 
ATOM      5  N   UNL     1      -0.302   7.779  28.578  0.00  0.00    -0.213 NA
ATOM      6  C   UNL     1      -3.007   9.988  28.239  0.00  0.00    +0.010 A 
ATOM      7  C   UNL     1      -3.148  11.241  28.831  0.00  0.00    +0.034 A 
ATOM     22  N   UNL     1       0.060   8.718  29.287  0.00  0.00    -0.127 N 
ATOM     31  C   UNL     1      -2.134  11.744  29.657  0.00  0.00    +0.212 A 
ATOM     32  O   UNL     1      -2.253  12.854  30.176  0.00  0.00    -0.408 OA
ATOM     33  C   UNL     1       0.084  11.539  30.786  0.00  0.00    +0.234 C 
ENDROOT
BRANCH  22  23
ATOM     23  C   UNL     1       1.234   8.696  29.911  0.00  0.00    +0.142 A 
ATOM     24  C   UNL     1       1.388   8.037  31.131  0.00  0.00    +0.025 A 
ATOM     25  C   UNL     1       2.638   8.022  31.748  0.00  0.00    +0.018 A 
ATOM     26  C   UNL     1       3.721   8.658  31.143  0.00  0.00    +0.122 A 
ATOM     27  C   UNL     1       3.574   9.311  29.926  0.00  0.00    +0.058 A 
ATOM     28  F   UNL     1       4.923   8.642  31.736  0.00  0.00    -0.191 F 
ATOM     29  C   UNL     1       2.327   9.321  29.308  0.00  0.00    +0.165 A 
ATOM     30  F   UNL     1       2.175   9.953  28.128  0.00  0.00    -0.187 F 
ENDBRANCH  22  23
BRANCH   7   8
ATOM      8  C   UNL     1      -4.299  11.979  28.562  0.00  0.00    -0.022 A 
ATOM      9  C   UNL     1      -5.497  11.800  29.258  0.00  0.00    -0.041 A 
ATOM     10  C   UNL     1      -6.610  12.577  28.929  0.00  0.00    -0.005 A 
ATOM     11  C   UNL     1      -6.535  13.526  27.908  0.00  0.00    +0.005 A 
ATOM     12  C   UNL     1      -5.340  13.699  27.213  0.00  0.00    +0.037 A 
ATOM     20  C   UNL     1      -5.605  10.766  30.385  0.00  0.00    +0.088 C 
ATOM     21  C   UNL     1      -4.233  12.924  27.542  0.00  0.00    +0.011 A 
BRANCH  12  13
ATOM     13  C   UNL     1      -5.204  14.720  26.087  0.00  0.00    +0.199 C 
ATOM     14  O   UNL     1      -4.154  14.808  25.451  0.00  0.00    -0.388 OA
ATOM     15  N   UNL     1      -6.275  15.472  25.858  0.00  0.00    -0.284 N 
ATOM     16  H   UNL     1      -7.110  15.332  26.427  0.00  0.00    +0.185 HD
BRANCH  15  17
ATOM     17  C   UNL     1      -6.290  16.503  24.806  0.00  0.00    +0.097 C 
ATOM     18  C   UNL     1      -6.428  15.980  23.376  0.00  0.00    +0.030 C 
ATOM     19  C   UNL     1      -7.608  16.673  24.055  0.00  0.00    +0.030 C 
ENDBRANCH  15  17
ENDBRANCH  12  13
ENDBRANCH   7   8
TORSDOF 4
