REMARK  Name = 5BUE
REMARK  4 active torsions:
REMARK  status: ('A' for Active; 'I' for Inactive)
REMARK    1  A    between atoms: C_1  and  C_26
REMARK    2  A    between atoms: C_7  and  N_23
REMARK    3  A    between atoms: C_12  and  C_13
REMARK    4  A    between atoms: C_12  and  N_28
REMARK                            x       y       z     vdW  Elec       q    Type
REMARK                         _______ _______ _______ _____ _____    ______ ____
ROOT
ATOM      1  C   UNL     1      17.820  -0.738  14.551  0.00  0.00    +0.098 A 
ATOM      8  N   UNL     1      18.392   0.127  13.824  0.00  0.00    -0.173 NA
ATOM      9  N   UNL     1      17.554   0.609  12.884  0.00  0.00    -0.281 N 
ATOM     10  H   UNL     1      17.800   1.353  12.156  0.00  0.00    +0.189 HD
ATOM     11  C   UNL     1      16.405   0.027  13.004  0.00  0.00    +0.043 A 
ATOM     12  C   UNL     1      15.183   0.273  12.159  0.00  0.00    +0.074 C 
ATOM     13  C   UNL     1      14.258  -0.968  12.289  0.00  0.00    +0.111 C 
ATOM     14  N   UNL     1      14.097  -1.522  13.657  0.00  0.00    -0.325 N 
ATOM     15  C   UNL     1      15.319  -1.732  14.449  0.00  0.00    +0.144 C 
ATOM     30  C   UNL     1      16.461  -0.851  14.024  0.00  0.00    +0.018 A 
ENDROOT
BRANCH  14  16
ATOM     16  C   UNL     1      12.911  -1.848  14.168  0.00  0.00    +0.036 C 
ATOM     17  C   UNL     1      11.713  -1.545  13.590  0.00  0.00    +0.093 C 
ATOM     18  C   UNL     1      10.433  -2.002  14.170  0.00  0.00    +0.253 C 
ATOM     19  O   UNL     1       9.428  -1.741  13.527  0.00  0.00    -0.268 OA
ATOM     20  N   UNL     1      10.460  -2.752  15.319  0.00  0.00    -0.311 N 
ATOM     28  C   UNL     1      11.633  -2.984  15.966  0.00  0.00    +0.091 C 
ATOM     29  C   UNL     1      12.806  -2.578  15.470  0.00  0.00    +0.041 C 
BRANCH  20  21
ATOM     21  C   UNL     1       9.248  -3.334  15.923  0.00  0.00    +0.160 C 
BRANCH  21  22
ATOM     22  C   UNL     1       8.894  -4.615  15.147  0.00  0.00    -0.028 A 
ATOM     23  C   UNL     1       9.877  -5.560  14.776  0.00  0.00    +0.005 A 
ATOM     24  C   UNL     1       9.546  -6.723  14.045  0.00  0.00    +0.000 A 
ATOM     25  C   UNL     1       8.205  -6.950  13.674  0.00  0.00    +0.000 A 
ATOM     26  C   UNL     1       7.213  -6.017  14.035  0.00  0.00    +0.000 A 
ATOM     27  C   UNL     1       7.557  -4.860  14.762  0.00  0.00    +0.005 A 
ENDBRANCH  21  22
ENDBRANCH  20  21
ENDBRANCH  14  16
BRANCH   1   2
ATOM      2  C   UNL     1      18.504  -1.477  15.684  0.00  0.00    +0.005 A 
ATOM      3  C   UNL     1      17.794  -2.097  16.728  0.00  0.00    +0.030 A 
ATOM      4  C   UNL     1      18.502  -2.768  17.735  0.00  0.00    +0.111 A 
ATOM      5  N   UNL     1      19.854  -2.831  17.676  0.00  0.00    -0.263 NA
ATOM      6  C   UNL     1      20.570  -2.249  16.689  0.00  0.00    +0.111 A 
ATOM      7  C   UNL     1      19.908  -1.550  15.675  0.00  0.00    +0.030 A 
ENDBRANCH   1   2
TORSDOF 4
