REMARK  Name = 4mh7_ligand
REMARK  12 active torsions:
REMARK  status: ('A' for Active; 'I' for Inactive)
REMARK    1  A    between atoms: C01_1  and  C02_2
REMARK    2  A    between atoms: C02_2  and  C03_3
REMARK    3  A    between atoms: C03_3  and  C04_4
REMARK    4  A    between atoms: C04_4  and  N05_5
REMARK    5  A    between atoms: C09_9  and  C10_10
REMARK    6  A    between atoms: N12_12  and  C13_13
REMARK    7  A    between atoms: N12_12  and  C14_14
REMARK    8  A    between atoms: C14_14  and  C15_15
REMARK    9  A    between atoms: C15_15  and  C16_16
REMARK   10  A    between atoms: C16_16  and  C17_17
REMARK   11  A    between atoms: N19_19  and  C20_20
REMARK   12  A    between atoms: C23_23  and  O24_24
REMARK                            x       y       z     vdW  Elec       q    Type
REMARK                         _______ _______ _______ _____ _____    ______ ____
ROOT
ATOM      5  N   UNL     1      14.225  20.333  17.386  0.00  0.00    -0.290 N 
ATOM      6  H   UNL     1      13.707  21.207  17.218  0.00  0.00    +0.188 HD
ATOM      7  C   UNL     1      14.914  19.665  16.299  0.00  0.00    +0.178 A 
ATOM      8  N   UNL     1      14.451  18.484  15.856  0.00  0.00    -0.236 NA
ATOM      9  C   UNL     1      15.065  17.816  14.856  0.00  0.00    +0.135 A 
ATOM     10  N   UNL     1      14.477  16.532  14.453  0.00  0.00    -0.296 N 
ATOM     11  H   UNL     1      14.883  15.991  13.676  0.00  0.00    +0.187 HD
ATOM     20  C   UNL     1      16.226  18.357  14.238  0.00  0.00    +0.104 A 
ATOM     29  C   UNL     1      16.672  19.600  14.740  0.00  0.00    +0.111 A 
ATOM     30  N   UNL     1      16.014  20.219  15.749  0.00  0.00    -0.266 NA
ENDROOT
BRANCH  10  12
ATOM     12  C   UNL     1      13.333  16.045  15.156  0.00  0.00    +0.098 C 
ATOM     13  C   UNL     1      12.512  15.186  14.232  0.00  0.00    +0.031 C 
ATOM     14  C   UNL     1      11.345  14.557  14.969  0.00  0.00    +0.034 C 
ATOM     15  C   UNL     1      11.781  13.806  16.236  0.00  0.00    +0.115 C 
ATOM     18  C   UNL     1      12.666  14.635  17.130  0.00  0.00    +0.034 C 
ATOM     19  C   UNL     1      13.825  15.257  16.374  0.00  0.00    +0.031 C 
BRANCH  15  16
ATOM     16  O   UNL     1      10.619  13.441  16.959  0.00  0.00    -0.392 OA
ATOM     17  H   UNL     1      10.053  12.917  16.404  0.00  0.00    +0.210 HD
ENDBRANCH  15  16
ENDBRANCH  10  12
BRANCH  20  21
ATOM     21  C   UNL     1      16.854  17.526  13.100  0.00  0.00    +0.203 C 
ATOM     22  N   UNL     1      18.030  17.787  12.259  0.00  0.00    -0.278 N 
ATOM     27  C   UNL     1      18.905  18.947  12.316  0.00  0.00    +0.167 C 
ATOM     28  O   UNL     1      16.261  16.489  12.883  0.00  0.00    -0.393 OA
BRANCH  22  23
ATOM     23  C   UNL     1      18.456  16.811  11.233  0.00  0.00    +0.137 C 
BRANCH  23  24
ATOM     24  C   UNL     1      19.760  16.145  11.779  0.00  0.00    +0.024 C 
BRANCH  24  25
ATOM     25  C   UNL     1      20.972  16.316  10.886  0.00  0.00    -0.002 C 
ATOM     26  C   UNL     1      22.249  15.745  11.544  0.00  0.00    +0.004 C 
ENDBRANCH  24  25
ENDBRANCH  23  24
ENDBRANCH  22  23
ENDBRANCH  20  21
BRANCH   5   4
ATOM      4  C   UNL     1      14.278  19.749  18.716  0.00  0.00    +0.137 C 
BRANCH   4   3
ATOM      3  C   UNL     1      13.062  18.806  18.931  0.00  0.00    +0.025 C 
BRANCH   3   2
ATOM      1  C   UNL     1      12.946  16.633  20.215  0.00  0.00    +0.004 C 
ATOM      2  C   UNL     1      13.114  18.128  20.304  0.00  0.00    -0.001 C 
ENDBRANCH   3   2
ENDBRANCH   4   3
ENDBRANCH   5   4
TORSDOF 9
