REMARK  Name = 4KKH
REMARK  5 active torsions:
REMARK  status: ('A' for Active; 'I' for Inactive)
REMARK    1  A    between atoms: C_1  and  N_19
REMARK    2  A    between atoms: C_8  and  C_9
REMARK    3  A    between atoms: C_16  and  N_17
REMARK    4  A    between atoms: C_22  and  O_23
REMARK    5  A    between atoms: C_28  and  C_29
REMARK                            x       y       z     vdW  Elec       q    Type
REMARK                         _______ _______ _______ _____ _____    ______ ____
ROOT
ATOM      2  N   UNL     1       4.376  25.922  31.860  0.00  0.00    -0.276 N 
ATOM      3  C   UNL     1       4.732  24.712  32.332  0.00  0.00    +0.147 A 
ATOM     14  N   UNL     1       3.987  23.797  31.742  0.00  0.00    -0.227 NA
ATOM     15  C   UNL     1       3.156  24.398  30.897  0.00  0.00    +0.090 A 
ATOM     16  C   UNL     1       2.220  23.876  30.086  0.00  0.00    +0.033 A 
ATOM     17  C   UNL     1       1.452  24.694  29.262  0.00  0.00    +0.048 A 
ATOM     18  C   UNL     1       1.687  26.067  29.310  0.00  0.00    +0.119 A 
ATOM     21  C   UNL     1       2.673  26.552  30.177  0.00  0.00    +0.073 A 
ATOM     22  C   UNL     1       3.389  25.712  30.956  0.00  0.00    +0.079 A 
ENDROOT
BRANCH   3   4
ATOM      4  C   UNL     1       5.645  24.429  33.277  0.00  0.00    +0.018 A 
ATOM      5  C   UNL     1       5.584  25.132  34.495  0.00  0.00    +0.012 A 
ATOM      6  C   UNL     1       6.499  24.912  35.526  0.00  0.00    +0.009 A 
ATOM      7  C   UNL     1       7.477  23.940  35.348  0.00  0.00    -0.018 A 
ATOM      8  C   UNL     1       8.397  23.710  36.367  0.00  0.00    +0.008 A 
ATOM      9  C   UNL     1       9.378  22.743  36.191  0.00  0.00    +0.001 A 
ATOM     10  C   UNL     1       9.437  22.009  35.006  0.00  0.00    +0.001 A 
ATOM     11  C   UNL     1       8.520  22.238  33.976  0.00  0.00    +0.008 A 
ATOM     12  C   UNL     1       7.536  23.207  34.149  0.00  0.00    -0.017 A 
ATOM     13  C   UNL     1       6.620  23.446  33.118  0.00  0.00    +0.020 A 
ENDBRANCH   3   4
BRANCH   2   1
ATOM      1  C   UNL     1       4.890  27.133  32.132  0.00  0.00    +0.145 A 
ATOM     23  N   UNL     1       4.143  28.240  31.993  0.00  0.00    -0.197 NA
ATOM     24  C   UNL     1       4.627  29.473  32.220  0.00  0.00    +0.217 A 
ATOM     25  N   UNL     1       3.842  30.547  32.084  0.00  0.00    -0.309 N 
ATOM     26  H   UNL     1       4.226  31.496  32.396  0.00  0.00    +0.149 HD
ATOM     38  N   UNL     1       5.906  29.647  32.589  0.00  0.00    -0.223 NA
ATOM     39  C   UNL     1       6.752  28.544  32.714  0.00  0.00    +0.118 A 
ATOM     40  C   UNL     1       6.243  27.277  32.469  0.00  0.00    +0.066 A 
BRANCH  25  27
ATOM     27  C   UNL     1       2.484  30.496  31.531  0.00  0.00    +0.090 C 
ATOM     28  C   UNL     1       2.523  30.471  29.970  0.00  0.00    +0.025 C 
ATOM     29  C   UNL     1       1.078  30.447  29.413  0.00  0.00    +0.021 C 
ATOM     30  C   UNL     1       0.268  31.655  29.912  0.00  0.00    +0.108 C 
ATOM     31  N   UNL     1       0.406  31.874  31.389  0.00  0.00    -0.299 N 
ATOM     32  C   UNL     1      -0.692  32.201  32.117  0.00  0.00    +0.219 C 
ATOM     33  O   UNL     1      -1.819  32.314  31.630  0.00  0.00    -0.275 OA
ATOM     37  C   UNL     1       1.744  31.738  32.019  0.00  0.00    +0.130 C 
BRANCH  32  34
ATOM     34  C   UNL     1      -0.486  32.437  33.622  0.00  0.00    +0.075 C 
ATOM     35  C   UNL     1      -1.744  32.437  34.503  0.00  0.00    +0.013 C 
ATOM     36  C   UNL     1      -1.057  33.752  34.160  0.00  0.00    +0.013 C 
ENDBRANCH  32  34
ENDBRANCH  25  27
ENDBRANCH   2   1
BRANCH  18  19
ATOM     19  O   UNL     1       0.958  26.912  28.521  0.00  0.00    -0.507 OA
ATOM     20  H   UNL     1       0.434  27.592  29.126  0.00  0.00    +0.292 HD
ENDBRANCH  18  19
TORSDOF 5
