REMARK  Name = 6HVH
REMARK  5 active torsions:
REMARK  status: ('A' for Active; 'I' for Inactive)
REMARK    1  A    between atoms: CBE_6  and  NBD_7
REMARK    2  A    between atoms: CBB_8  and  CAW_10
REMARK    3  A    between atoms: CAV_15  and  NAQ_16
REMARK    4  A    between atoms: NAQ_16  and  CAA_17
REMARK    5  A    between atoms: CAC_26  and  CAG_27
REMARK                            x       y       z     vdW  Elec       q    Type
REMARK                         _______ _______ _______ _____ _____    ______ ____
ROOT
ATOM      8  C   UNL     1      91.669  48.176 266.832  0.00  0.00    +0.050 A 
ATOM      9  C   UNL     1      92.678  47.234 266.654  0.00  0.00    -0.130 A 
ATOM     10  C   UNL     1      93.967  47.529 267.041  0.00  0.00    +0.000 A 
ATOM     11  C   UNL     1      94.282  48.762 267.620  0.00  0.00    +0.000 A 
ATOM     12  C   UNL     1      93.278  49.715 267.809  0.00  0.00    +0.000 A 
ATOM     23  N   UNL     1      95.553  49.030 267.992  0.00  0.00    -0.380 NA
ATOM     24  C   UNL     1      96.560  48.096 267.804  0.00  0.00    +0.250 A 
ATOM     25  C   UNL     1      96.242  46.877 267.223  0.00  0.00    +0.250 A 
ATOM     26  N   UNL     1      94.923  46.611 266.843  0.00  0.00    -0.380 NA
ATOM     27  C   UNL     1      91.980  49.405 267.418  0.00  0.00    -0.130 A 
ENDROOT
BRANCH  12  13
ATOM     13  C   UNL     1      93.540  50.968 268.391  0.00  0.00    +0.000 A 
ATOM     14  C   UNL     1      94.524  51.810 267.884  0.00  0.00    -0.130 A 
ATOM     15  C   UNL     1      94.734  53.025 268.500  0.00  0.00    -0.130 A 
ATOM     16  C   UNL     1      94.016  53.400 269.568  0.00  0.00    +0.050 A 
ATOM     17  C   UNL     1      94.039  54.527 270.309  0.00  0.00    -0.150 A 
ATOM     18  C   UNL     1      93.110  54.415 271.263  0.00  0.00    +0.000 A 
ATOM     19  N   UNL     1      92.520  53.228 271.100  0.00  0.00    -0.350 N 
ATOM     20  C   UNL     1      91.435  52.699 271.946  0.00  0.00    -0.100 C 
ATOM     21  C   UNL     1      93.067  52.599 270.056  0.00  0.00    +0.200 A 
ATOM     22  C   UNL     1      92.822  51.402 269.504  0.00  0.00    -0.130 A 
ENDBRANCH  12  13
BRANCH   8   7
ATOM      7  N   UNL     1      90.381  47.951 266.508  0.00  0.00    -0.350 NA
BRANCH   7   6
ATOM      5  C   UNL     1      88.716  46.709 265.433  0.00  0.00    +0.000 A 
ATOM      6  C   UNL     1      90.007  47.263 265.416  0.00  0.00    +0.050 A 
ATOM     28  C   UNL     1      90.817  47.133 264.287  0.00  0.00    +0.250 A 
ATOM     29  N   UNL     1      90.372  46.449 263.160  0.00  0.00    -0.760 NA
ATOM     30  C   UNL     1      89.114  45.897 263.185  0.00  0.00    +0.250 A 
ATOM     31  C   UNL     1      88.306  46.039 264.299  0.00  0.00    -0.130 A 
BRANCH   5   4
ATOM      3  N   UNL     1      87.045  45.767 266.802  0.00  0.00    -0.400 NA
ATOM      4  C   UNL     1      87.847  46.799 266.544  0.00  0.00    +0.600 C 
ATOM     32  O   UNL     1      87.858  47.766 267.289  0.00  0.00    -0.550 OA
BRANCH   3   2
ATOM      1  C   UNL     1      84.827  46.563 267.578  0.00  0.00    -0.100 C 
ATOM      2  C   UNL     1      86.131  45.824 267.964  0.00  0.00    +0.050 C 
ATOM     33  C   UNL     1      85.824  44.392 268.479  0.00  0.00    -0.100 C 
ATOM     34  C   UNL     1      84.781  44.431 269.619  0.00  0.00    +0.080 C 
ATOM     35  O   UNL     1      83.591  45.225 269.275  0.00  0.00    -0.360 OA
ATOM     36  C   UNL     1      83.869  46.579 268.792  0.00  0.00    +0.080 C 
ENDBRANCH   3   2
ENDBRANCH   5   4
ENDBRANCH   7   6
ENDBRANCH   8   7
TORSDOF 5
