REMARK  Name = 3AD4
REMARK  4 active torsions:
REMARK  status: ('A' for Active; 'I' for Inactive)
REMARK    1  A    between atoms: C_7  and  C_8
REMARK    2  A    between atoms: C_8  and  C_10
REMARK    3  A    between atoms: C_17  and  O_19
REMARK    4  A    between atoms: O_19  and  C_20
REMARK                            x       y       z     vdW  Elec       q    Type
REMARK                         _______ _______ _______ _____ _____    ______ ____
ROOT
ATOM      7  C   UNL     1     -26.544   0.355  -9.103  0.00  0.00    +0.176 A 
ATOM      8  C   UNL     1     -27.168  -0.607  -8.273  0.00  0.00    +0.062 A 
ATOM      9  C   UNL     1     -28.564  -0.551  -8.675  0.00  0.00    +0.024 A 
ATOM     10  C   UNL     1     -29.693  -1.245  -8.242  0.00  0.00    +0.057 A 
ATOM     11  C   UNL     1     -30.933  -0.947  -8.845  0.00  0.00    +0.121 A 
ATOM     14  C   UNL     1     -31.056   0.024  -9.876  0.00  0.00    +0.049 A 
ATOM     15  C   UNL     1     -29.949   0.749 -10.343  0.00  0.00    +0.050 A 
ATOM     16  C   UNL     1     -28.719   0.454  -9.742  0.00  0.00    +0.136 A 
ATOM     17  O   UNL     1     -27.423   0.987  -9.967  0.00  0.00    -0.452 OA
ENDROOT
BRANCH   7   6
ATOM      6  C   UNL     1     -25.151   0.848  -9.260  0.00  0.00    +0.228 C 
ATOM     18  O   UNL     1     -24.972   1.738 -10.084  0.00  0.00    -0.283 OA
BRANCH   6   5
ATOM      1 CL   UNL     1     -20.216  -1.239  -6.127  0.00  0.00    -0.084 Cl
ATOM      2  C   UNL     1     -21.727  -0.687  -7.002  0.00  0.00    +0.041 A 
ATOM      3  C   UNL     1     -23.021  -1.210  -6.765  0.00  0.00    +0.021 A 
ATOM      4  C   UNL     1     -24.144  -0.737  -7.479  0.00  0.00    +0.013 A 
ATOM      5  C   UNL     1     -23.998   0.285  -8.445  0.00  0.00    +0.025 A 
ATOM     19  C   UNL     1     -22.714   0.801  -8.688  0.00  0.00    +0.013 A 
ATOM     20  C   UNL     1     -21.605   0.316  -7.977  0.00  0.00    +0.021 A 
ENDBRANCH   6   5
ENDBRANCH   7   6
BRANCH  11  12
ATOM     12  O   UNL     1     -32.052  -1.635  -8.411  0.00  0.00    -0.495 OA
ATOM     13  C   UNL     1     -32.789  -1.248  -7.234  0.00  0.00    +0.277 C 
ENDBRANCH  11  12
TORSDOF 3
