REMARK  Name = 2A30
REMARK  4 active torsions:
REMARK  status: ('A' for Active; 'I' for Inactive)
REMARK    1  A    between atoms: N1_1  and  C1*_9
REMARK    2  A    between atoms: C3*_11  and  O3*_14
REMARK    3  A    between atoms: C4*_12  and  C5*_15
REMARK    4  A    between atoms: C5*_15  and  O5*_16
REMARK                            x       y       z     vdW  Elec       q    Type
REMARK                         _______ _______ _______ _____ _____    ______ ____
ROOT
ATOM      1  N1    C A   1      -5.965  -2.838  44.607  0.00  0.00    -0.273 N 
ATOM     12  C6    C A   1      -5.752  -2.558  45.899  0.00  0.00    +0.096 C 
ATOM     13  C5    C A   1      -4.741  -3.064  46.574  0.00  0.00    +0.061 C 
ATOM     14  C4    C A   1      -3.887  -3.871  45.978  0.00  0.00    +0.123 C 
ATOM     15  N4    C A   1      -2.810  -4.402  46.639  0.00  0.00    -0.343 N 
ATOM     16  H41   C A   1      -2.644  -4.165  47.669  0.00  0.00    +0.144 HD
ATOM     17  H42   C A   1      -2.135  -5.054  46.125  0.00  0.00    +0.144 HD
ATOM     18  N3    C A   1      -4.025  -4.215  44.693  0.00  0.00    -0.178 NA
ATOM     19  C2    C A   1      -5.098  -3.672  44.008  0.00  0.00    +0.352 C 
ATOM     20  O2    C A   1      -5.159  -4.046  42.795  0.00  0.00    -0.244 OA
ENDROOT
BRANCH   1   2
ATOM      2  C1*   C A   1      -7.087  -2.250  43.843  0.00  0.00    +0.226 C 
ATOM      3  O4*   C A   1      -7.355  -0.925  44.431  0.00  0.00    -0.348 OA
ATOM      4  C4*   C A   1      -8.727  -0.583  44.371  0.00  0.00    +0.175 C 
ATOM      8  C3*   C A   1      -9.396  -1.806  43.664  0.00  0.00    +0.150 C 
ATOM     11  C2*   C A   1      -8.379  -2.981  43.707  0.00  0.00    +0.088 C 
BRANCH   8   9
ATOM      9  O3*   C A   1      -9.683  -1.470  42.288  0.00  0.00    -0.389 OA
ATOM     10  H3*   C A   1      -8.796  -1.184  41.805  0.00  0.00    +0.210 HD
ENDBRANCH   8   9
BRANCH   4   5
ATOM      5  C5*   C A   1      -9.320  -0.364  45.739  0.00  0.00    +0.190 C 
BRANCH   5   6
ATOM      6  O5*   C A   1      -8.553  -0.978  46.765  0.00  0.00    -0.392 OA
ATOM      7  H5*   C A   1      -8.504  -2.013  46.594  0.00  0.00    +0.209 HD
ENDBRANCH   5   6
ENDBRANCH   4   5
ENDBRANCH   1   2
TORSDOF 4
