REMARK  Name = 4QQC
REMARK  14 active torsions:
REMARK  status: ('A' for Active; 'I' for Inactive)
REMARK    1  A    between atoms: N_7  and  C_36
REMARK    2  A    between atoms: C_8  and  O_35
REMARK    3  A    between atoms: N_9  and  C_25
REMARK    4  A    between atoms: N_11  and  C_12
REMARK    5  A    between atoms: C_15  and  N_18
REMARK    6  A    between atoms: N_21  and  C_24
REMARK    7  A    between atoms: C_27  and  O_32
REMARK    8  A    between atoms: C_29  and  O_31
REMARK    9  A    between atoms: O_31  and  C_33
REMARK   10  A    between atoms: O_32  and  C_34
REMARK   11  A    between atoms: C_36  and  C_37
REMARK   12  A    between atoms: C_40  and  N_43
REMARK   13  A    between atoms: C_44  and  C_45
REMARK   14  A    between atoms: C_45  and  C_46
REMARK                            x       y       z     vdW  Elec       q    Type
REMARK                         _______ _______ _______ _____ _____    ______ ____
ROOT
ATOM      1  C   UNL     1     -24.585   8.523  -1.484  0.00  0.00    +0.123 A 
ATOM      2  C   UNL     1     -24.538   7.102  -1.136  0.00  0.00    +0.028 A 
ATOM      3  C   UNL     1     -23.334   6.498  -1.211  0.00  0.00    +0.149 C 
ATOM      4  N   UNL     1     -23.227   5.237  -0.898  0.00  0.00    -0.277 N 
ATOM     15  C   UNL     1     -24.313   4.504  -0.547  0.00  0.00    +0.277 C 
ATOM     18  N   UNL     1     -25.524   5.086  -0.491  0.00  0.00    -0.262 N 
ATOM     32  C   UNL     1     -25.628   6.395  -0.761  0.00  0.00    +0.135 A 
ATOM     33  N   UNL     1     -26.742   7.035  -0.726  0.00  0.00    -0.199 NA
ATOM     34  C   UNL     1     -26.837   8.244  -1.020  0.00  0.00    +0.221 A 
ATOM     35  N   UNL     1     -28.074   8.896  -0.929  0.00  0.00    -0.284 N 
ATOM     36  H   UNL     1     -28.049   9.964  -0.870  0.00  0.00    +0.155 HD
ATOM     50  N   UNL     1     -25.845   9.024  -1.382  0.00  0.00    -0.222 NA
ENDROOT
BRANCH   4   5
ATOM      5  C   UNL     1     -21.905   4.679  -1.064  0.00  0.00    +0.041 A 
ATOM      6  C   UNL     1     -21.444   4.654  -2.377  0.00  0.00    +0.069 A 
ATOM      7  C   UNL     1     -20.190   4.144  -2.692  0.00  0.00    +0.125 A 
ATOM     10  C   UNL     1     -19.394   3.682  -1.632  0.00  0.00    +0.091 A 
ATOM     11  C   UNL     1     -19.854   3.712  -0.328  0.00  0.00    +0.125 A 
ATOM     14  C   UNL     1     -21.127   4.211  -0.037  0.00  0.00    +0.069 A 
BRANCH   7   8
ATOM      8  O   UNL     1     -19.805   4.139  -4.025  0.00  0.00    -0.495 OA
ATOM      9  C   UNL     1     -18.485   3.884  -4.327  0.00  0.00    +0.277 C 
ENDBRANCH   7   8
BRANCH  11  12
ATOM     12  O   UNL     1     -19.083   3.236   0.737  0.00  0.00    -0.495 OA
ATOM     13  C   UNL     1     -17.696   3.311   0.650  0.00  0.00    +0.277 C 
ENDBRANCH  11  12
ENDBRANCH   4   5
BRANCH  35  37
ATOM     37  C   UNL     1     -29.338   8.299  -0.907  0.00  0.00    +0.034 A 
ATOM     38  C   UNL     1     -29.513   6.964  -1.106  0.00  0.00    +0.025 A 
ATOM     39  C   UNL     1     -30.794   6.448  -1.060  0.00  0.00    +0.028 A 
ATOM     40  C   UNL     1     -31.874   7.255  -0.821  0.00  0.00    +0.046 A 
ATOM     48  C   UNL     1     -31.702   8.603  -0.652  0.00  0.00    +0.028 A 
ATOM     49  C   UNL     1     -30.421   9.095  -0.687  0.00  0.00    +0.025 A 
BRANCH  40  41
ATOM     41  N   UNL     1     -33.201   6.674  -0.837  0.00  0.00    -0.320 N 
ATOM     42  C   UNL     1     -34.282   7.429  -0.630  0.00  0.00    +0.109 A 
ATOM     43  C   UNL     1     -35.543   6.852  -0.692  0.00  0.00    +0.103 A 
ATOM     44  N   UNL     1     -35.675   5.543  -0.985  0.00  0.00    -0.353 N 
ATOM     45  C   UNL     1     -36.968   4.940  -1.058  0.00  0.00    +0.148 C 
ATOM     46  C   UNL     1     -34.591   4.793  -1.223  0.00  0.00    +0.103 A 
ATOM     47  C   UNL     1     -33.338   5.375  -1.154  0.00  0.00    +0.109 A 
ENDBRANCH  40  41
ENDBRANCH  35  37
BRANCH  15  16
ATOM     16  O   UNL     1     -24.174   3.172  -0.227  0.00  0.00    -0.352 OA
ATOM     17  H   UNL     1     -23.229   2.717  -0.271  0.00  0.00    +0.214 HD
ENDBRANCH  15  16
BRANCH  18  19
ATOM     19  C   UNL     1     -26.718   4.408  -0.002  0.00  0.00    +0.146 C 
BRANCH  19  20
ATOM     20  C   UNL     1     -27.321   3.147  -0.547  0.00  0.00    -0.030 A 
ATOM     21  C   UNL     1     -27.887   3.130  -1.808  0.00  0.00    +0.007 A 
ATOM     22  C   UNL     1     -28.488   1.927  -2.277  0.00  0.00    +0.023 A 
ATOM     23  C   UNL     1     -28.530   0.774  -1.492  0.00  0.00    +0.033 A 
ATOM     30  C   UNL     1     -27.948   0.825  -0.232  0.00  0.00    +0.023 A 
ATOM     31  C   UNL     1     -27.364   2.020   0.247  0.00  0.00    +0.007 A 
BRANCH  23  24
ATOM     24  N   UNL     1     -29.166  -0.427  -2.027  0.00  0.00    -0.285 N 
ATOM     25  H   UNL     1     -29.026  -0.615  -3.071  0.00  0.00    +0.155 HD
ATOM     26  C   UNL     1     -29.953  -1.377  -1.313  0.00  0.00    +0.217 C 
ATOM     27  O   UNL     1     -30.162  -1.271  -0.129  0.00  0.00    -0.276 OA
BRANCH  26  28
ATOM     28  C   UNL     1     -30.538  -2.541  -2.047  0.00  0.00    +0.093 C 
ATOM     29  C   UNL     1     -30.232  -3.857  -1.377  0.00  0.00    +0.013 C 
ENDBRANCH  26  28
ENDBRANCH  23  24
ENDBRANCH  19  20
ENDBRANCH  18  19
TORSDOF 10
