REMARK  Name = 3hmp_ligand
REMARK  3 active torsions:
REMARK  status: ('A' for Active; 'I' for Inactive)
REMARK    1  A    between atoms: CAP_3  and  CAH_4
REMARK    2  A    between atoms: CAH_4  and  NAK_5
REMARK    3  A    between atoms: NAK_5  and  C6_6
REMARK                            x       y       z     vdW  Elec       q    Type
REMARK                         _______ _______ _______ _____ _____    ______ ____
ROOT
ATOM      6  C   UNL     1     -35.153 -16.330 -10.148  0.00  0.00    +0.144 A 
ATOM      7  N   UNL     1     -34.970 -15.017 -10.385  0.00  0.00    -0.254 NA
ATOM      8  C   UNL     1     -35.536 -14.413 -11.424  0.00  0.00    +0.166 A 
ATOM      9  N   UNL     1     -36.304 -15.066 -12.278  0.00  0.00    -0.294 NA
ATOM     10  C   UNL     1     -36.534 -16.378 -12.107  0.00  0.00    +0.045 A 
ATOM     11  C   UNL     1     -37.342 -17.063 -13.010  0.00  0.00    +0.037 A 
ATOM     12  C   UNL     1     -37.578 -18.426 -12.841  0.00  0.00    +0.047 A 
ATOM     13 CL   UNL     1     -38.594 -19.223 -13.978  0.00  0.00    -0.064 Cl
ATOM     14  C   UNL     1     -37.009 -19.119 -11.769  0.00  0.00    +0.023 A 
ATOM     15  C   UNL     1     -36.203 -18.432 -10.858  0.00  0.00    +0.029 A 
ATOM     16  C   UNL     1     -35.962 -17.062 -11.025  0.00  0.00    +0.055 A 
ENDROOT
BRANCH   6   4
ATOM      4  N   UNL     1     -34.575 -16.900  -9.085  0.00  0.00    -0.292 N 
ATOM      5  H   UNL     1     -34.702 -17.911  -8.932  0.00  0.00    +0.191 HD
BRANCH   4   3
ATOM      3  C   UNL     1     -33.766 -16.134  -8.128  0.00  0.00    +0.143 C 
BRANCH   3   2
ATOM      1  C   UNL     1     -33.998 -15.421  -5.665  0.00  0.00    +0.006 C 
ATOM      2  C   UNL     1     -34.676 -15.589  -7.026  0.00  0.00    +0.012 C 
ATOM     17  C   UNL     1     -34.988 -16.570  -5.894  0.00  0.00    +0.006 C 
ENDBRANCH   3   2
ENDBRANCH   4   3
ENDBRANCH   6   4
TORSDOF 3
