REMARK  Name = 4CCB
REMARK  8 active torsions:
REMARK  status: ('A' for Active; 'I' for Inactive)
REMARK    1  A    between atoms: C_9  and  C_10
REMARK    2  A    between atoms: C_11  and  C_19
REMARK    3  A    between atoms: C_12  and  N_25
REMARK    4  A    between atoms: C_13  and  O_27
REMARK    5  A    between atoms: C_15  and  C_17
REMARK    6  A    between atoms: C_16  and  N_26
REMARK    7  A    between atoms: C_18  and  C_19
REMARK    8  A    between atoms: C_19  and  O_27
REMARK                            x       y       z     vdW  Elec       q    Type
REMARK                         _______ _______ _______ _____ _____    ______ ____
ROOT
ATOM     12  O   UNL     1      30.911  43.745   9.221  0.00  0.00    -0.481 OA
ENDROOT
BRANCH  12  13
ATOM     13  C   UNL     1      29.870  44.669   9.260  0.00  0.00    +0.161 A 
ATOM     14  C   UNL     1      28.789  44.335  10.119  0.00  0.00    +0.158 A 
ATOM     18  N   UNL     1      27.695  45.157  10.259  0.00  0.00    -0.236 NA
ATOM     19  C   UNL     1      27.643  46.334   9.549  0.00  0.00    +0.121 A 
ATOM     20  C   UNL     1      28.650  46.774   8.665  0.00  0.00    +0.007 A 
ATOM     28  C   UNL     1      29.769  45.902   8.540  0.00  0.00    +0.059 A 
BRANCH  20  21
ATOM     21  C   UNL     1      28.600  48.046   7.906  0.00  0.00    +0.024 A 
ATOM     22  C   UNL     1      27.485  48.753   7.419  0.00  0.00    +0.041 A 
ATOM     23  N   UNL     1      27.998  49.861   6.797  0.00  0.00    -0.281 N 
ATOM     24  H   UNL     1      27.378  50.595   6.325  0.00  0.00    +0.189 HD
ATOM     25  N   UNL     1      29.329  49.956   6.824  0.00  0.00    -0.181 NA
ATOM     26  C   UNL     1      26.008  48.555   7.446  0.00  0.00    +0.065 C 
ATOM     27  C   UNL     1      29.695  48.862   7.493  0.00  0.00    +0.143 A 
ENDBRANCH  20  21
BRANCH  14  15
ATOM     15  N   UNL     1      28.824  43.133  10.859  0.00  0.00    -0.340 N 
ATOM     16  H   UNL     1      28.011  42.880  11.507  0.00  0.00    +0.144 HD
ATOM     17  H   UNL     1      29.664  42.476  10.772  0.00  0.00    +0.144 HD
ENDBRANCH  14  15
ENDBRANCH  12  13
BRANCH  12  11
ATOM     11  C   UNL     1      32.101  43.925   8.396  0.00  0.00    +0.203 C 
ATOM     29  C   UNL     1      32.766  42.546   8.290  0.00  0.00    +0.057 C 
BRANCH  11  10
ATOM      1  C   UNL     1      34.515  47.004   8.873  0.00  0.00    +0.032 A 
ATOM      2  C   UNL     1      33.626  46.073   8.239  0.00  0.00    +0.089 A 
ATOM     10  C   UNL     1      33.069  44.969   8.987  0.00  0.00    +0.022 A 
ATOM     30  C   UNL     1      33.444  44.849  10.374  0.00  0.00    +0.047 A 
ATOM     31  C   UNL     1      34.322  45.781  10.977  0.00  0.00    +0.124 A 
ATOM     32  F   UNL     1      34.648  45.643  12.265  0.00  0.00    -0.205 F 
ATOM     33  C   UNL     1      34.858  46.853  10.239  0.00  0.00    +0.040 A 
BRANCH   2   3
ATOM      3  N   UNL     1      33.337  46.307   6.863  0.00  0.00    -0.196 N 
ATOM      4  N   UNL     1      33.651  45.423   5.888  0.00  0.00    -0.284 N 
ATOM      5  H   UNL     1      34.132  44.471   5.974  0.00  0.00    +0.188 HD
ATOM      6  C   UNL     1      33.209  46.041   4.792  0.00  0.00    +0.122 A 
ATOM      7  C   UNL     1      32.648  47.269   5.133  0.00  0.00    +0.122 A 
ATOM      8  N   UNL     1      32.722  47.451   6.448  0.00  0.00    -0.284 N 
ATOM      9  H   UNL     1      32.385  48.282   7.031  0.00  0.00    +0.188 HD
ENDBRANCH   2   3
ENDBRANCH  11  10
ENDBRANCH  12  11
TORSDOF 6
