REMARK  Name = 5VD3
REMARK  8 active torsions:
REMARK  status: ('A' for Active; 'I' for Inactive)
REMARK    1  A    between atoms: C_1  and  N_2
REMARK    2  A    between atoms: N_5  and  C_6
REMARK    3  A    between atoms: C_6  and  C_7
REMARK    4  A    between atoms: C_7  and  O_8
REMARK    5  A    between atoms: O_8  and  C_9
REMARK    6  A    between atoms: C_11  and  O_12
REMARK    7  A    between atoms: O_12  and  C_13
REMARK    8  A    between atoms: N_21  and  C_22
REMARK                            x       y       z     vdW  Elec       q    Type
REMARK                         _______ _______ _______ _____ _____    ______ ____
ROOT
ATOM      9  C   UNL     1     -13.138   2.747   1.862  0.00  0.00    +0.126 A 
ATOM     10  C   UNL     1     -13.436   1.396   2.021  0.00  0.00    +0.074 A 
ATOM     11  C   UNL     1     -14.744   1.001   2.298  0.00  0.00    +0.083 A 
ATOM     12  N   UNL     1     -15.053  -0.286   2.449  0.00  0.00    -0.235 NA
ATOM     13  C   UNL     1     -16.290  -0.680   2.706  0.00  0.00    +0.224 A 
ATOM     14  N   UNL     1     -17.284   0.153   2.826  0.00  0.00    -0.220 NA
ATOM     15  C   UNL     1     -17.116   1.477   2.694  0.00  0.00    +0.138 A 
ATOM     16  N   UNL     1     -18.222   2.331   2.837  0.00  0.00    -0.295 N 
ATOM     17  H   UNL     1     -18.075   3.313   2.718  0.00  0.00    +0.154 HD
ATOM     28  C   UNL     1     -15.784   1.965   2.416  0.00  0.00    +0.082 A 
ATOM     29  C   UNL     1     -15.458   3.333   2.248  0.00  0.00    +0.137 A 
ATOM     37  C   UNL     1     -14.149   3.700   1.978  0.00  0.00    +0.092 A 
ENDROOT
BRANCH  16  18
ATOM     18  C   UNL     1     -19.544   1.880   3.141  0.00  0.00    +0.097 A 
ATOM     19  C   UNL     1     -20.618   2.277   2.328  0.00  0.00    +0.066 A 
ATOM     20 CL   UNL     1     -20.322   3.317   0.969  0.00  0.00    -0.082 Cl
ATOM     21  C   UNL     1     -21.919   1.870   2.576  0.00  0.00    +0.025 A 
ATOM     22  C   UNL     1     -22.172   1.042   3.656  0.00  0.00    +0.051 A 
ATOM     23  C   UNL     1     -21.133   0.632   4.474  0.00  0.00    +0.168 A 
ATOM     24  O   UNL     1     -21.131  -0.168   5.588  0.00  0.00    -0.453 OA
ATOM     25  C   UNL     1     -19.787  -0.360   6.046  0.00  0.00    +0.466 C 
ATOM     26  O   UNL     1     -19.005   0.489   5.195  0.00  0.00    -0.451 OA
ATOM     27  C   UNL     1     -19.821   1.046   4.229  0.00  0.00    +0.189 A 
ENDBRANCH  16  18
BRANCH   9   8
ATOM      8  O   UNL     1     -11.895   3.248   1.591  0.00  0.00    -0.490 OA
BRANCH   8   7
ATOM      7  C   UNL     1     -10.867   2.273   1.591  0.00  0.00    +0.244 C 
BRANCH   7   6
ATOM      6  C   UNL     1      -9.582   2.929   1.124  0.00  0.00    +0.125 C 
BRANCH   6   5
ATOM      1  C   UNL     1      -6.759   6.964   3.724  0.00  0.00    +0.105 C 
ATOM      2  N   UNL     1      -7.502   6.143   2.744  0.00  0.00    -0.303 NA
ATOM      3  C   UNL     1      -8.854   5.878   3.315  0.00  0.00    +0.099 C 
ATOM      4  C   UNL     1      -9.622   4.966   2.346  0.00  0.00    +0.100 C 
ATOM      5  N   UNL     1      -8.907   3.674   2.178  0.00  0.00    -0.297 NA
ATOM     38  C   UNL     1      -7.553   3.936   1.632  0.00  0.00    +0.100 C 
ATOM     39  C   UNL     1      -6.744   4.878   2.549  0.00  0.00    +0.099 C 
ENDBRANCH   6   5
ENDBRANCH   7   6
ENDBRANCH   8   7
ENDBRANCH   9   8
BRANCH  29  30
ATOM     30  O   UNL     1     -16.486   4.223   2.369  0.00  0.00    -0.488 OA
BRANCH  30  31
ATOM     31  C   UNL     1     -16.256   5.586   2.013  0.00  0.00    +0.178 C 
ATOM     32  C   UNL     1     -17.425   6.261   2.730  0.00  0.00    +0.072 C 
ATOM     33  C   UNL     1     -18.176   7.309   1.890  0.00  0.00    +0.163 C 
ATOM     34  O   UNL     1     -18.370   6.808   0.575  0.00  0.00    -0.380 OA
ATOM     35  C   UNL     1     -17.163   6.650  -0.166  0.00  0.00    +0.163 C 
ATOM     36  C   UNL     1     -16.279   5.579   0.476  0.00  0.00    +0.072 C 
ENDBRANCH  30  31
ENDBRANCH  29  30
TORSDOF 7
