REMARK  Name = 3BQR
REMARK  8 active torsions:
REMARK  status: ('A' for Active; 'I' for Inactive)
REMARK    1  A    between atoms: C_3  and  C_4
REMARK    2  A    between atoms: C_9  and  C_10
REMARK    3  A    between atoms: C_18  and  N_19
REMARK    4  A    between atoms: N_19  and  CA_20
REMARK    5  A    between atoms: CA_20  and  C_21
REMARK    6  A    between atoms: CA_20  and  C_23
REMARK    7  A    between atoms: C_21  and  C_22
REMARK    8  A    between atoms: C_23  and  O_24
REMARK                            x       y       z     vdW  Elec       q    Type
REMARK                         _______ _______ _______ _____ _____    ______ ____
ROOT
ATOM      3  C   UNL     1       2.256  44.174  34.462  0.00  0.00    +0.089 C 
ATOM      4  N   UNL     1       2.027  43.216  35.410  0.00  0.00    -0.236 NA
ATOM      5  N   UNL     1       2.764  42.733  36.318  0.00  0.00    -0.278 NA
ATOM      6  H   UNL     1       3.761  43.101  36.441  0.00  0.00    +0.189 HD
ATOM      7  C   UNL     1       2.312  41.769  37.126  0.00  0.00    +0.112 C 
ATOM     16  C   UNL     1       1.020  41.284  37.005  0.00  0.00    +0.046 C 
ATOM     17  C   UNL     1       0.219  41.776  36.003  0.00  0.00    +0.049 C 
ATOM     18  C   UNL     1       0.735  42.758  35.188  0.00  0.00    +0.131 C 
ATOM     19  N   UNL     1       0.200  43.402  34.184  0.00  0.00    -0.344 NA
ATOM     20  H   UNL     1      -0.791  43.274  33.800  0.00  0.00    +0.167 HD
ATOM     21  C   UNL     1       1.140  44.264  33.721  0.00  0.00    +0.112 C 
ENDROOT
BRANCH   3   2
ATOM      1  C   UNL     1       3.815  45.415  33.108  0.00  0.00    +0.010 A 
ATOM      2  C   UNL     1       3.495  44.876  34.343  0.00  0.00    +0.002 A 
ATOM     22  C   UNL     1       4.414  45.083  35.405  0.00  0.00    +0.010 A 
ATOM     23  C   UNL     1       5.595  45.791  35.201  0.00  0.00    +0.010 A 
ATOM     24  C   UNL     1       5.884  46.340  33.954  0.00  0.00    -0.003 A 
ATOM     28  C   UNL     1       4.984  46.123  32.903  0.00  0.00    +0.010 A 
BRANCH  24  25
ATOM     25  C   UNL     1       7.193  47.107  33.666  0.00  0.00    +0.072 C 
ATOM     26  O   UNL     1       7.342  47.548  32.514  0.00  0.00    -0.545 OA
ATOM     27  O   UNL     1       8.040  47.161  34.593  0.00  0.00    -0.545 OA
ENDBRANCH  24  25
ENDBRANCH   3   2
BRANCH   7   8
ATOM      8  N   UNL     1       3.046  41.231  38.087  0.00  0.00    -0.325 NA
ATOM      9  H   UNL     1       2.531  40.683  38.848  0.00  0.00    +0.148 HD
BRANCH   8  10
ATOM     10  CA  UNL     1       4.473  41.320  38.194  0.00  0.00    +0.097 C 
BRANCH  10  14
ATOM     14  C   UNL     1       4.676  42.658  38.910  0.00  0.00    +0.021 C 
ATOM     15  C   UNL     1       5.971  42.733  39.679  0.00  0.00    +0.005 C 
ENDBRANCH  10  14
BRANCH  10  11
ATOM     11  C   UNL     1       5.151  41.212  36.811  0.00  0.00    +0.177 C 
BRANCH  11  12
ATOM     12  O   UNL     1       5.102  39.857  36.276  0.00  0.00    -0.393 OA
ATOM     13  H   UNL     1       5.596  39.203  36.932  0.00  0.00    +0.209 HD
ENDBRANCH  11  12
ENDBRANCH  10  11
ENDBRANCH   8  10
ENDBRANCH   7   8
TORSDOF 7
