REMARK  Name = 6QG4
REMARK  3 active torsions:
REMARK  status: ('A' for Active; 'I' for Inactive)
REMARK    1  A    between atoms: N1_1  and  C3_3
REMARK    2  A    between atoms: C8_7  and  C7_23
REMARK    3  A    between atoms: C11_8  and  C12_9
REMARK                            x       y       z     vdW  Elec       q    Type
REMARK                         _______ _______ _______ _____ _____    ______ ____
ROOT
ATOM      1  N   UNL     1     -25.081   9.343  -5.278  0.00  0.00    -0.250 N 
ATOM      2  N   UNL     1     -25.556   8.865  -6.513  0.00  0.00    -0.100 NA
ATOM      3  C   UNL     1     -25.315   7.535  -6.591  0.00  0.00    +0.100 A 
ATOM      4  C   UNL     1     -24.640   7.147  -5.322  0.00  0.00    +0.000 A 
ATOM      5  C   UNL     1     -24.099   5.905  -4.721  0.00  0.00    +0.430 A 
ATOM      6  N   UNL     1     -23.543   5.993  -3.492  0.00  0.00    -0.760 NA
ATOM      7  C   UNL     1     -23.478   7.160  -2.824  0.00  0.00    +0.630 A 
ATOM      8  N   UNL     1     -23.948   8.325  -3.306  0.00  0.00    -0.730 NA
ATOM      9  N   UNL     1     -24.156   4.721  -5.378  0.00  0.00    -0.550 NA
ATOM     17  C   UNL     1     -24.529   8.384  -4.528  0.00  0.00    +0.550 A 
ENDROOT
BRANCH   1  18
ATOM     18  C   UNL     1     -25.291  10.798  -5.077  0.00  0.00    +0.000 C 
ATOM     19  C   UNL     1     -26.787  11.087  -5.014  0.00  0.00    -0.100 C 
ATOM     20  C   UNL     1     -27.049  12.587  -4.950  0.00  0.00    -0.100 C 
ATOM     21  C   UNL     1     -26.398  13.296  -6.130  0.00  0.00    +0.000 C 
ATOM     22  N   UNL     1     -24.988  12.950  -6.035  0.00  0.00    -0.250 N 
ATOM     23  C   UNL     1     -24.051  13.856  -5.768  0.00  0.00    +0.600 C 
ATOM     24  O   UNL     1     -24.308  14.963  -5.322  0.00  0.00    -0.550 OA
ATOM     27  C   UNL     1     -24.677  11.545  -6.256  0.00  0.00    +0.000 C 
BRANCH  23  25
ATOM     25  C   UNL     1     -22.656  13.470  -6.050  0.00  0.00    -0.100 C 
ATOM     26  C   UNL     1     -21.847  14.250  -7.079  0.00  0.00    -0.100 C 
ENDBRANCH  23  25
ENDBRANCH   1  18
BRANCH   3  10
ATOM     10  C   UNL     1     -25.661   6.654  -7.740  0.00  0.00    +0.000 A 
ATOM     11  C   UNL     1     -24.683   5.862  -8.331  0.00  0.00    -0.130 A 
ATOM     12  C   UNL     1     -25.008   5.043  -9.407  0.00  0.00    -0.130 A 
ATOM     13  C   UNL     1     -26.309   5.022  -9.893  0.00  0.00    +0.250 A 
ATOM     14  O   UNL     1     -26.632   4.221 -10.945  0.00  0.00    -0.650 OA
ATOM     15  C   UNL     1     -27.285   5.816  -9.303  0.00  0.00    -0.130 A 
ATOM     16  C   UNL     1     -26.962   6.633  -8.227  0.00  0.00    -0.130 A 
ENDBRANCH   3  10
TORSDOF 3
