REMARK  Name = 3SRD
REMARK  9 active torsions:
REMARK  status: ('A' for Active; 'I' for Inactive)
REMARK    1  A    between atoms: P_1  and  O_5
REMARK    2  A    between atoms: O_5  and  C_6
REMARK    3  A    between atoms: C_6  and  C_7
REMARK    4  A    between atoms: C_7  and  O_8
REMARK    5  A    between atoms: C_9  and  O_10
REMARK    6  A    between atoms: C_11  and  O_12
REMARK    7  A    between atoms: C_13  and  C_15
REMARK    8  A    between atoms: C_15  and  O_16
REMARK    9  A    between atoms: O_16  and  P_17
REMARK                            x       y       z     vdW  Elec       q    Type
REMARK                         _______ _______ _______ _____ _____    ______ ____
ROOT
ATOM      4  C   UNL     1     -47.274  -4.762 -17.923  0.00  0.00    +0.221 C 
ATOM      5  O   UNL     1     -46.295  -5.390 -17.108  0.00  0.00    -0.336 OA
ATOM      6  C   UNL     1     -45.995  -6.676 -17.626  0.00  0.00    +0.179 C 
ATOM     13  C   UNL     1     -46.316  -6.601 -19.106  0.00  0.00    +0.179 C 
ATOM     16  C   UNL     1     -47.542  -5.721 -19.075  0.00  0.00    +0.207 C 
ENDROOT
BRANCH  13  14
ATOM     14  O   UNL     1     -46.622  -7.872 -19.616  0.00  0.00    -0.386 OA
ATOM     15  H   UNL     1     -47.348  -8.328 -19.009  0.00  0.00    +0.210 HD
ENDBRANCH  13  14
BRANCH  16  17
ATOM     17  O   UNL     1     -47.761  -5.048 -20.286  0.00  0.00    -0.384 OA
ATOM     18  H   UNL     1     -48.593  -4.415 -20.189  0.00  0.00    +0.210 HD
ENDBRANCH  16  17
BRANCH   4  19
ATOM     19  O   UNL     1     -46.772  -3.493 -18.414  0.00  0.00    -0.361 OA
ATOM     20  H   UNL     1     -47.496  -3.043 -19.027  0.00  0.00    +0.213 HD
ENDBRANCH   4  19
BRANCH   4   3
ATOM      3  C   UNL     1     -48.544  -4.528 -17.119  0.00  0.00    +0.231 C 
BRANCH   3   2
ATOM      2  O   UNL     1     -49.066  -5.773 -16.709  0.00  0.00    -0.362 OA
BRANCH   2   1
ATOM      1  P   UNL     1     -50.492  -5.853 -15.974  0.00  0.00    -0.015 P 
ATOM     21  O   UNL     1     -51.484  -4.981 -16.707  0.00  0.00    -0.577 OA
ATOM     22  O   UNL     1     -50.347  -5.358 -14.548  0.00  0.00    -0.577 OA
ATOM     23  O   UNL     1     -50.939  -7.295 -15.991  0.00  0.00    -0.638 OA
ENDBRANCH   2   1
ENDBRANCH   3   2
ENDBRANCH   4   3
BRANCH   6   7
ATOM      7  C   UNL     1     -44.570  -7.108 -17.322  0.00  0.00    +0.198 C 
BRANCH   7   8
ATOM      8  O   UNL     1     -44.596  -7.846 -16.125  0.00  0.00    -0.365 OA
BRANCH   8   9
ATOM      9  P   UNL     1     -43.613  -9.095 -15.876  0.00  0.00    -0.015 P 
ATOM     10  O   UNL     1     -44.279 -10.089 -14.957  0.00  0.00    -0.577 OA
ATOM     11  O   UNL     1     -42.377  -8.546 -15.213  0.00  0.00    -0.638 OA
ATOM     12  O   UNL     1     -43.249  -9.780 -17.177  0.00  0.00    -0.577 OA
ENDBRANCH   8   9
ENDBRANCH   7   8
ENDBRANCH   6   7
TORSDOF 9
