REMARK  Name = 5AUW
REMARK  6 active torsions:
REMARK  status: ('A' for Active; 'I' for Inactive)
REMARK    1  A    between atoms: C_2  and  O_22
REMARK    2  A    between atoms: C_6  and  O_21
REMARK    3  A    between atoms: C_8  and  O_20
REMARK    4  A    between atoms: C_9  and  C_10
REMARK    5  A    between atoms: C_13  and  O_19
REMARK    6  A    between atoms: C_14  and  O_18
REMARK                            x       y       z     vdW  Elec       q    Type
REMARK                         _______ _______ _______ _____ _____    ______ ____
ROOT
ATOM      1  C   UNL     1     -26.730   4.750 -11.084  0.00  0.00    +0.091 A 
ATOM      2  C   UNL     1     -26.540   5.463  -9.913  0.00  0.00    +0.124 A 
ATOM      5  C   UNL     1     -25.386   5.308  -9.163  0.00  0.00    +0.092 A 
ATOM      6  C   UNL     1     -24.403   4.431  -9.598  0.00  0.00    +0.146 A 
ATOM      7  O   UNL     1     -23.270   4.308  -8.855  0.00  0.00    -0.451 OA
ATOM      8  C   UNL     1     -22.289   3.428  -9.218  0.00  0.00    +0.181 C 
ATOM     19  C   UNL     1     -22.462   2.693 -10.395  0.00  0.00    +0.208 C 
ATOM     22  C   UNL     1     -23.582   2.829 -11.201  0.00  0.00    +0.238 C 
ATOM     23  O   UNL     1     -23.712   2.156 -12.224  0.00  0.00    -0.283 OA
ATOM     24  C   UNL     1     -24.562   3.710 -10.782  0.00  0.00    +0.109 A 
ATOM     25  C   UNL     1     -25.741   3.880 -11.508  0.00  0.00    +0.135 A 
ENDROOT
BRANCH   8   9
ATOM      9  C   UNL     1     -21.197   3.420  -8.343  0.00  0.00    +0.025 A 
ATOM     10  C   UNL     1     -20.388   2.317  -8.139  0.00  0.00    +0.060 A 
ATOM     11  C   UNL     1     -19.331   2.394  -7.244  0.00  0.00    +0.159 A 
ATOM     14  C   UNL     1     -19.094   3.594  -6.560  0.00  0.00    +0.158 A 
ATOM     17  C   UNL     1     -19.904   4.702  -6.758  0.00  0.00    +0.050 A 
ATOM     18  C   UNL     1     -20.955   4.601  -7.654  0.00  0.00    +0.015 A 
BRANCH  11  12
ATOM     12  O   UNL     1     -18.527   1.305  -7.025  0.00  0.00    -0.503 OA
ATOM     13  H   UNL     1     -17.536   1.545  -7.275  0.00  0.00    +0.292 HD
ENDBRANCH  11  12
BRANCH  14  15
ATOM     15  O   UNL     1     -18.056   3.657  -5.707  0.00  0.00    -0.503 OA
ATOM     16  H   UNL     1     -17.388   4.403  -6.023  0.00  0.00    +0.292 HD
ENDBRANCH  14  15
ENDBRANCH   8   9
BRANCH   2   3
ATOM      3  O   UNL     1     -27.500   6.304  -9.485  0.00  0.00    -0.506 OA
ATOM      4  H   UNL     1     -27.669   7.043 -10.212  0.00  0.00    +0.292 HD
ENDBRANCH   2   3
BRANCH  19  20
ATOM     20  O   UNL     1     -21.499   1.812 -10.795  0.00  0.00    -0.501 OA
ATOM     21  H   UNL     1     -21.911   0.848 -10.861  0.00  0.00    +0.292 HD
ENDBRANCH  19  20
BRANCH  25  26
ATOM     26  O   UNL     1     -25.894   3.168 -12.659  0.00  0.00    -0.506 OA
ATOM     27  H   UNL     1     -26.746   2.559 -12.584  0.00  0.00    +0.292 HD
ENDBRANCH  25  26
TORSDOF 6
