REMARK  Name = 4gih_ligand
REMARK  4 active torsions:
REMARK  status: ('A' for Active; 'I' for Inactive)
REMARK    1  A    between atoms: C4_1  and  C8_5
REMARK    2  A    between atoms: C11_4  and  N10_13
REMARK    3  A    between atoms: C15_15  and  N17_17
REMARK    4  A    between atoms: C18_18  and  C20_20
REMARK                            x       y       z     vdW  Elec       q    Type
REMARK                         _______ _______ _______ _____ _____    ______ ____
ROOT
ATOM     10  C   UNL     1      -8.762  -9.186 -16.028  0.00  0.00    +0.071 A 
ATOM     11  C   UNL     1      -8.864  -9.963 -17.181  0.00  0.00    +0.049 A 
ATOM     12  C   UNL     1      -9.728 -11.061 -17.216  0.00  0.00    +0.120 A 
ATOM     20  N   UNL     1     -10.484 -11.323 -16.149  0.00  0.00    -0.306 NA
ATOM     21  C   UNL     1     -10.448 -10.596 -15.033  0.00  0.00    +0.050 A 
ATOM     22  C   UNL     1      -9.576  -9.514 -14.923  0.00  0.00    +0.018 A 
ENDROOT
BRANCH  10   8
ATOM      7  C   UNL     1      -7.648  -7.169 -15.163  0.00  0.00    +0.236 C 
ATOM      8  N   UNL     1      -7.915  -8.078 -16.116  0.00  0.00    -0.228 N 
ATOM      9  H   UNL     1      -7.452  -7.946 -16.993  0.00  0.00    +0.229 HD
ATOM     23  O   UNL     1      -8.140  -7.216 -14.031  0.00  0.00    -0.371 OA
BRANCH   7   1
ATOM      1  C   UNL     1      -6.768  -6.029 -15.496  0.00  0.00    +0.084 A 
ATOM      2  C   UNL     1      -5.379  -6.153 -15.688  0.00  0.00    +0.061 A 
ATOM      3 CL   UNL     1      -4.581  -7.696 -15.677  0.00  0.00    -0.065 Cl
ATOM      4  C   UNL     1      -4.622  -5.012 -15.935  0.00  0.00    +0.021 A 
ATOM      5  C   UNL     1      -5.225  -3.757 -16.003  0.00  0.00    +0.008 A 
ATOM      6  C   UNL     1      -6.592  -3.626 -15.825  0.00  0.00    +0.021 A 
ATOM     24  C   UNL     1      -7.363  -4.756 -15.587  0.00  0.00    +0.061 A 
ATOM     25 CL   UNL     1      -9.078  -4.602 -15.447  0.00  0.00    -0.065 Cl
ENDBRANCH   7   1
ENDBRANCH  10   8
BRANCH  12  13
ATOM     13  N   UNL     1      -9.832 -11.877 -18.364  0.00  0.00    -0.222 N 
ATOM     14  H   UNL     1     -10.665 -12.419 -18.474  0.00  0.00    +0.230 HD
ATOM     15  C   UNL     1      -8.875 -11.980 -19.336  0.00  0.00    +0.210 C 
ATOM     19  O   UNL     1      -7.842 -11.339 -19.271  0.00  0.00    -0.383 OA
BRANCH  15  16
ATOM     16  C   UNL     1      -9.094 -12.903 -20.528  0.00  0.00    +0.110 C 
ATOM     17  C   UNL     1      -7.900 -13.709 -21.055  0.00  0.00    +0.028 C 
ATOM     18  C   UNL     1      -8.448 -12.543 -21.873  0.00  0.00    +0.028 C 
ENDBRANCH  15  16
ENDBRANCH  12  13
TORSDOF 4
