REMARK  Name = 5OWQ
REMARK  4 active torsions:
REMARK  status: ('A' for Active; 'I' for Inactive)
REMARK    1  A    between atoms: C_1  and  N_17
REMARK    2  A    between atoms: C_6  and  N_18
REMARK    3  A    between atoms: C_7  and  C_11
REMARK    4  A    between atoms: C_12  and  N_23
REMARK                            x       y       z     vdW  Elec       q    Type
REMARK                         _______ _______ _______ _____ _____    ______ ____
ROOT
ATOM      6  C   UNL     1       4.928  -2.462  51.280  0.00  0.00    +0.032 A 
ATOM      7  C   UNL     1       5.329  -1.423  50.458  0.00  0.00    +0.050 A 
ATOM      8  C   UNL     1       5.753  -0.246  51.022  0.00  0.00    +0.068 A 
ATOM      9  C   UNL     1       5.776  -0.080  52.403  0.00  0.00    +0.090 A 
ATOM     10  C   UNL     1       5.367  -1.121  53.247  0.00  0.00    +0.032 A 
ATOM     11  N   UNL     1       6.245   1.193  52.701  0.00  0.00    -0.228 NA
ATOM     12  C   UNL     1       6.502   1.772  51.533  0.00  0.00    +0.146 A 
ATOM     29  N   UNL     1       6.209   0.947  50.492  0.00  0.00    -0.338 N 
ATOM     30  H   UNL     1       6.313   1.179  49.453  0.00  0.00    +0.167 HD
ATOM     31  C   UNL     1       4.941  -2.318  52.666  0.00  0.00    +0.025 A 
ENDROOT
BRANCH  12  13
ATOM     13  C   UNL     1       7.014   3.150  51.404  0.00  0.00    +0.103 C 
ATOM     14  C   UNL     1       6.942   4.021  52.546  0.00  0.00    +0.262 C 
ATOM     15  N   UNL     1       7.420   5.292  52.433  0.00  0.00    -0.321 N 
ATOM     16  H   UNL     1       7.356   5.923  53.294  0.00  0.00    +0.169 HD
ATOM     17  C   UNL     1       7.983   5.828  51.285  0.00  0.00    +0.054 A 
ATOM     18  C   UNL     1       8.440   7.151  51.262  0.00  0.00    +0.026 A 
ATOM     19  C   UNL     1       8.987   7.666  50.105  0.00  0.00    +0.005 A 
ATOM     20  C   UNL     1       9.103   6.895  48.958  0.00  0.00    +0.039 A 
ATOM     21  C   UNL     1       8.667   5.605  48.969  0.00  0.00    +0.134 A 
ATOM     22  F   UNL     1       8.786   4.885  47.824  0.00  0.00    -0.205 F 
ATOM     23  C   UNL     1       8.090   5.027  50.128  0.00  0.00    +0.055 A 
ATOM     24  O   UNL     1       6.465   3.672  53.627  0.00  0.00    -0.267 OA
ATOM     25  C   UNL     1       7.604   3.661  50.177  0.00  0.00    +0.053 C 
BRANCH  25  26
ATOM     26  N   UNL     1       7.699   2.878  49.078  0.00  0.00    -0.357 N 
ATOM     27  H   UNL     1       8.135   3.265  48.181  0.00  0.00    +0.142 HD
ATOM     28  H   UNL     1       7.338   1.871  49.106  0.00  0.00    +0.142 HD
ENDBRANCH  25  26
ENDBRANCH  12  13
BRANCH   6   5
ATOM      1  C   UNL     1       3.399  -6.685  49.222  0.00  0.00    +0.105 C 
ATOM      2  N   UNL     1       3.025  -6.084  50.508  0.00  0.00    -0.302 NA
ATOM      3  C   UNL     1       4.176  -5.967  51.419  0.00  0.00    +0.103 C 
ATOM      4  C   UNL     1       5.165  -4.922  50.933  0.00  0.00    +0.120 C 
ATOM      5  N   UNL     1       4.503  -3.633  50.734  0.00  0.00    -0.327 N 
ATOM     32  C   UNL     1       3.356  -3.740  49.834  0.00  0.00    +0.120 C 
ATOM     33  C   UNL     1       2.378  -4.777  50.336  0.00  0.00    +0.103 C 
ENDBRANCH   6   5
TORSDOF 3
