REMARK  Name = 4PT
REMARK  8 active torsions:
REMARK  status: ('A' for Active; 'I' for Inactive)
REMARK    1  A    between atoms: P1_2  and  O1_5
REMARK    2  A    between atoms: O1_5  and  C1_6
REMARK    3  A    between atoms: C3_9  and  O3_10
REMARK    4  A    between atoms: O3_10  and  P3_11
REMARK    5  A    between atoms: C4_15  and  O4_16
REMARK    6  A    between atoms: O4_16  and  P4_17
REMARK    7  A    between atoms: C5_21  and  O5_22
REMARK    8  A    between atoms: O5_22  and  P5_23
REMARK                            x       y       z     vdW  Elec       q    Type
REMARK                         _______ _______ _______ _____ _____    ______ ____
ROOT
ATOM      6  C   UNL     1     -25.337  17.042  88.283  0.00  0.00    +0.192 C 
ATOM      7  C   UNL     1     -24.763  18.454  88.152  0.00  0.00    +0.212 C 
ATOM      8  O   UNL     1     -25.820  19.405  88.309  0.00  0.00    -0.218 OA
ATOM      9  C   UNL     1     -24.137  18.625  86.767  0.00  0.00    +0.189 C 
ATOM     15  C   UNL     1     -25.191  18.411  85.679  0.00  0.00    +0.187 C 
ATOM     16  C   UNL     1     -25.838  17.029  85.805  0.00  0.00    +0.189 C 
ATOM     27  C   UNL     1     -26.400  16.796  87.210  0.00  0.00    +0.212 C 
ATOM     28  O   UNL     1     -26.853  15.444  87.310  0.00  0.00    -0.218 OA
ENDROOT
BRANCH   6   5
ATOM      5  O   UNL     1     -25.928  16.887  89.576  0.00  0.00    -0.267 OA
BRANCH   5   2
ATOM      1  O   UNL     1     -26.063  15.782  91.884  0.00  0.00    -0.115 OA
ATOM      2  P   UNL     1     -25.498  15.655  90.522  0.00  0.00    +0.533 P 
ATOM      3  O   UNL     1     -23.887  15.645  90.531  0.00  0.00    -0.115 OA
ATOM      4  O   UNL     1     -25.963  14.305  89.777  0.00  0.00    -0.222 OA
ENDBRANCH   5   2
ENDBRANCH   6   5
BRANCH   9  10
ATOM     10  O   UNL     1     -23.581  19.937  86.644  0.00  0.00    -0.267 OA
BRANCH  10  11
ATOM     11  P   UNL     1     -21.994  20.157  86.812  0.00  0.00    +0.533 P 
ATOM     12  O   UNL     1     -21.552  19.354  88.135  0.00  0.00    -0.115 OA
ATOM     13  O   UNL     1     -21.626  21.590  86.876  0.00  0.00    -0.115 OA
ATOM     14  O   UNL     1     -21.308  19.402  85.566  0.00  0.00    -0.222 OA
ENDBRANCH  10  11
ENDBRANCH   9  10
BRANCH  16  17
ATOM     17  O   UNL     1     -26.892  16.884  84.849  0.00  0.00    -0.267 OA
BRANCH  17  18
ATOM     18  P   UNL     1     -26.594  16.694  83.277  0.00  0.00    +0.533 P 
ATOM     19  O   UNL     1     -25.006  16.498  83.096  0.00  0.00    -0.115 OA
ATOM     20  O   UNL     1     -27.262  15.285  82.877  0.00  0.00    -0.115 OA
ATOM     21  O   UNL     1     -27.121  17.819  82.474  0.00  0.00    -0.222 OA
ENDBRANCH  17  18
ENDBRANCH  16  17
BRANCH  15  22
ATOM     22  O   UNL     1     -24.569  18.524  84.397  0.00  0.00    -0.268 OA
BRANCH  22  23
ATOM     23  P   UNL     1     -24.472  19.953  83.662  0.00  0.00    +0.533 P 
ATOM     24  O   UNL     1     -25.395  20.959  84.234  0.00  0.00    -0.115 OA
ATOM     25  O   UNL     1     -22.930  20.406  83.754  0.00  0.00    -0.115 OA
ATOM     26  O   UNL     1     -24.750  19.679  82.101  0.00  0.00    -0.222 OA
ENDBRANCH  22  23
ENDBRANCH  15  22
TORSDOF 8
