REMARK  Name = M05
REMARK  4 active torsions:
REMARK  status: ('A' for Active; 'I' for Inactive)
REMARK    1  A    between atoms: C4_3  and  C5_4
REMARK    2  A    between atoms: C4_3  and  C9_7
REMARK    3  A    between atoms: C4_27  and  C5_28
REMARK    4  A    between atoms: C4_27  and  C9_31
REMARK                            x       y       z     vdW  Elec       q    Type
REMARK                         _______ _______ _______ _____ _____    ______ ____
ROOT
ATOM      1  N   UNL     1      -6.809  -8.394  -8.200  0.00  0.00    -0.293 N 
ATOM      2  C   UNL     1      -8.030  -8.805  -7.494  0.00  0.00    +0.094 C 
ATOM      3  C   UNL     1      -9.058  -9.356  -8.471  0.00  0.00    +0.039 C 
ATOM      4  C   UNL     1      -9.383  -8.408  -9.639  0.00  0.00    +0.084 C 
ATOM     13  C   UNL     1      -8.071  -7.859 -10.218  0.00  0.00    +0.039 C 
ATOM     14  N   UNL     1     -10.073  -9.203 -10.713  0.00  0.00    -0.134 NA
ATOM     15  C   UNL     1      -5.636  -9.177  -8.330  0.00  0.00    +0.133 A 
ATOM     16  N   UNL     1      -5.704 -10.463  -7.920  0.00  0.00    -0.209 NA
ATOM     17  C   UNL     1      -4.602 -11.218  -8.032  0.00  0.00    +0.201 A 
ATOM     18  N   UNL     1      -3.390 -10.870  -8.469  0.00  0.00    -0.205 NA
ATOM     19  C   UNL     1      -3.346  -9.569  -8.844  0.00  0.00    +0.163 A 
ATOM     20  N   UNL     1      -2.258  -8.892  -9.322  0.00  0.00    -0.230 NA
ATOM     21  C   UNL     1      -2.608  -7.606  -9.571  0.00  0.00    +0.079 C 
ATOM     22  C   UNL     1      -3.928  -7.441  -9.250  0.00  0.00    +0.079 C 
ATOM     23  C   UNL     1      -4.410  -8.671  -8.789  0.00  0.00    +0.051 A 
ATOM     24  C   UNL     1      -7.124  -7.329  -9.157  0.00  0.00    +0.094 C 
ENDROOT
BRANCH   4   5
ATOM      5  C   UNL     1     -10.216  -7.185  -9.193  0.00  0.00    +0.044 C 
BRANCH   5   6
ATOM      6  C   UNL     1     -11.523  -7.460  -8.496  0.00  0.00    -0.021 A 
ATOM      7  C   UNL     1     -11.729  -6.994  -7.201  0.00  0.00    -0.003 A 
ATOM      8  C   UNL     1     -12.928  -7.223  -6.561  0.00  0.00    +0.011 A 
ATOM      9  C   UNL     1     -13.942  -7.913  -7.209  0.00  0.00    +0.058 A 
ATOM     10 CL   UNL     1     -15.451  -8.197  -6.402  0.00  0.00    -0.082 Cl
ATOM     11  C   UNL     1     -13.751  -8.372  -8.503  0.00  0.00    +0.011 A 
ATOM     12  C   UNL     1     -12.554  -8.138  -9.148  0.00  0.00    -0.003 A 
ENDBRANCH   5   6
ENDBRANCH   4   5
TORSDOF 2
