REMARK  Name = FP7
REMARK  4 active torsions:
REMARK  status: ('A' for Active; 'I' for Inactive)
REMARK    1  A    between atoms: C3_3  and  C6_6
REMARK    2  A    between atoms: C6_6  and  N_11
REMARK    3  A    between atoms: C12_8  and  C8_18
REMARK    4  A    between atoms: C_12  and  C17_13
REMARK                            x       y       z     vdW  Elec       q    Type
REMARK                         _______ _______ _______ _____ _____    ______ ____
ROOT
ATOM      5  N   UNL     1     -13.736  -1.851   7.995  0.00  0.00    -0.290 N 
ATOM      6  C   UNL     1     -14.212  -1.023   9.004  0.00  0.00    +0.261 C 
ATOM      7  C   UNL     1     -14.048  -1.448  10.319  0.00  0.00    +0.061 C 
ATOM      8  C   UNL     1     -13.550  -2.686  10.648  0.00  0.00    +0.006 C 
ATOM      9  C   UNL     1     -13.104  -3.477   9.607  0.00  0.00    +0.021 C 
ATOM     17  O   UNL     1     -14.732   0.116   8.712  0.00  0.00    -0.267 OA
ATOM     18  C   UNL     1     -13.219  -3.020   8.296  0.00  0.00    +0.079 C 
ENDROOT
BRANCH   9  10
ATOM     10  C   UNL     1     -12.534  -4.765   9.905  0.00  0.00    +0.051 A 
ATOM     11  C   UNL     1     -11.419  -5.188  10.758  0.00  0.00    +0.101 A 
ATOM     12  C   UNL     1     -10.603  -4.265  11.593  0.00  0.00    +0.056 C 
ATOM     13  N   UNL     1     -11.248  -6.505  10.691  0.00  0.00    -0.082 NA
ATOM     14  O   UNL     1     -12.179  -7.065   9.812  0.00  0.00    -0.358 OA
ATOM     15  C   UNL     1     -12.939  -6.040   9.329  0.00  0.00    +0.154 A 
ATOM     16  C   UNL     1     -14.007  -6.382   8.358  0.00  0.00    +0.075 C 
ENDBRANCH   9  10
BRANCH   5   4
ATOM      4  C   UNL     1     -13.781  -1.340   6.589  0.00  0.00    +0.136 C 
BRANCH   4   3
ATOM      1  C   UNL     1     -10.671   0.847   6.357  0.00  0.00    -0.002 A 
ATOM      2  C   UNL     1     -11.838   0.315   6.831  0.00  0.00    -0.003 A 
ATOM      3  C   UNL     1     -12.477  -0.722   6.183  0.00  0.00    +0.001 A 
ATOM     19  C   UNL     1     -11.888  -1.234   5.061  0.00  0.00    -0.003 A 
ATOM     20  C   UNL     1     -10.704  -0.694   4.551  0.00  0.00    -0.002 A 
ATOM     21  C   UNL     1     -10.084   0.327   5.175  0.00  0.00    +0.008 A 
BRANCH  21  22
ATOM     22  C   UNL     1      -8.731   0.849   4.704  0.00  0.00    +0.174 C 
ATOM     23  C   UNL     1      -7.393   0.080   5.181  0.00  0.00    +0.041 C 
ATOM     24  O   UNL     1      -8.757   0.930   3.233  0.00  0.00    -0.218 OA
ENDBRANCH  21  22
ENDBRANCH   4   3
ENDBRANCH   5   4
TORSDOF 4
