REMARK  Name = 3NG
REMARK  2 active torsions:
REMARK  status: ('A' for Active; 'I' for Inactive)
REMARK    1  A    between atoms: C5_5  and  C23_23
REMARK    2  A    between atoms: N15_15  and  C16_16
REMARK                            x       y       z     vdW  Elec       q    Type
REMARK                         _______ _______ _______ _____ _____    ______ ____
ROOT
ATOM      1  C   UNL     1      14.420   2.000   5.000  0.00  0.00    +0.000 C 
ENDROOT
TORSDOF 0
