REMARK  Name = 4acd_ligand
REMARK  6 active torsions:
REMARK  status: ('A' for Active; 'I' for Inactive)
REMARK    1  A    between atoms: N2_2  and  C3_3
REMARK    2  A    between atoms: N6_6  and  S7_7
REMARK    3  A    between atoms: S7_7  and  C10_10
REMARK    4  A    between atoms: C13_13  and  C16_16
REMARK    5  A    between atoms: C20_20  and  C22_22
REMARK    6  A    between atoms: N24_24  and  C25_25
REMARK                            x       y       z     vdW  Elec       q    Type
REMARK                         _______ _______ _______ _____ _____    ______ ____
ROOT
ATOM      9  C   UNL     1      22.634 -18.610   7.857  0.00  0.00    +0.074 A 
ATOM     10  N   UNL     1      21.622 -17.881   8.343  0.00  0.00    -0.260 NA
ATOM     11  C   UNL     1      20.433 -17.818   7.722  0.00  0.00    +0.176 A 
ATOM     22  C   UNL     1      20.262 -18.531   6.506  0.00  0.00    +0.162 A 
ATOM     23  N   UNL     1      19.071 -18.494   5.806  0.00  0.00    -0.311 N 
ATOM     24  H   UNL     1      18.286 -17.951   6.164  0.00  0.00    +0.182 HD
ATOM     25  H   UNL     1      18.977 -19.010   4.931  0.00  0.00    +0.182 HD
ATOM     26  N   UNL     1      21.282 -19.252   6.017  0.00  0.00    -0.253 NA
ATOM     27  C   UNL     1      22.439 -19.325   6.657  0.00  0.00    +0.130 A 
ENDROOT
BRANCH   9   8
ATOM      5  C   UNL     1      26.440 -18.414   9.860  0.00  0.00    +0.109 A 
ATOM      6  C   UNL     1      25.257 -18.096  10.534  0.00  0.00    +0.030 A 
ATOM      7  C   UNL     1      24.037 -18.157   9.889  0.00  0.00    +0.013 A 
ATOM      8  C   UNL     1      23.960 -18.587   8.551  0.00  0.00    -0.000 A 
ATOM     28  C   UNL     1      25.145 -18.894   7.865  0.00  0.00    +0.013 A 
ATOM     29  C   UNL     1      26.361 -18.811   8.515  0.00  0.00    +0.030 A 
BRANCH   5   4
ATOM      4  S   UNL     1      28.017 -18.343  10.703  0.00  0.00    +0.071 S 
ATOM     30  O   UNL     1      28.973 -17.878   9.747  0.00  0.00    -0.150 OA
ATOM     31  O   UNL     1      27.826 -17.693  11.960  0.00  0.00    -0.150 OA
BRANCH   4   3
ATOM      1  C   UNL     1      28.626 -22.234  10.104  0.00  0.00    -0.089 C 
ATOM      2  C   UNL     1      29.061 -20.758  10.007  0.00  0.00    +0.103 C 
ATOM      3  N   UNL     1      28.411 -19.910  11.056  0.00  0.00    -0.238 NA
ATOM     32  C   UNL     1      28.118 -20.422  12.417  0.00  0.00    +0.103 C 
ATOM     33  C   UNL     1      27.633 -21.881  12.342  0.00  0.00    -0.089 C 
ATOM     34  N   UNL     1      28.594 -22.639  11.526  0.00  0.00    +0.403 NA
ATOM     35  C   UNL     1      28.415 -24.083  11.706  0.00  0.00    -0.131 C 
ENDBRANCH   4   3
ENDBRANCH   5   4
ENDBRANCH   9   8
BRANCH  11  12
ATOM     12  C   UNL     1      19.374 -16.966   8.316  0.00  0.00    +0.254 C 
ATOM     13  N   UNL     1      19.690 -16.312   9.471  0.00  0.00    -0.225 N 
ATOM     14  H   UNL     1      20.636 -16.470   9.818  0.00  0.00    +0.228 HD
ATOM     21  O   UNL     1      18.293 -16.837   7.755  0.00  0.00    -0.370 OA
BRANCH  13  15
ATOM     15  C   UNL     1      18.902 -15.455  10.249  0.00  0.00    +0.094 A 
ATOM     16  C   UNL     1      17.537 -15.209  10.031  0.00  0.00    +0.102 A 
ATOM     17  N   UNL     1      16.871 -14.376  10.828  0.00  0.00    -0.313 NA
ATOM     18  C   UNL     1      17.449 -13.777  11.868  0.00  0.00    +0.064 A 
ATOM     19  C   UNL     1      18.794 -13.970  12.148  0.00  0.00    +0.019 A 
ATOM     20  C   UNL     1      19.515 -14.848  11.339  0.00  0.00    +0.041 A 
ENDBRANCH  13  15
ENDBRANCH  11  12
TORSDOF 5
