REMARK  Name = 3H10
REMARK  4 active torsions:
REMARK  status: ('A' for Active; 'I' for Inactive)
REMARK    1  A    between atoms: C_2  and  C_10
REMARK    2  A    between atoms: N_6  and  C_7
REMARK    3  A    between atoms: C_15  and  N_16
REMARK    4  A    between atoms: C_25  and  C_33
REMARK                            x       y       z     vdW  Elec       q    Type
REMARK                         _______ _______ _______ _____ _____    ______ ____
ROOT
ATOM      7  N   UNL     1       5.413 -14.095 -28.950  0.00  0.00    -0.213 NA
ATOM      8  C   UNL     1       6.529 -13.589 -29.515  0.00  0.00    +0.229 A 
ATOM      9  N   UNL     1       7.572 -13.332 -28.711  0.00  0.00    -0.330 N 
ATOM     10  H   UNL     1       7.499 -13.528 -27.662  0.00  0.00    +0.168 HD
ATOM     11  C   UNL     1       8.708 -12.828 -29.223  0.00  0.00    +0.093 A 
ATOM     12  C   UNL     1       8.807 -12.530 -30.567  0.00  0.00    +0.016 A 
ATOM     13  C   UNL     1      10.104 -11.973 -31.140  0.00  0.00    +0.180 C 
ATOM     14  N   UNL     1       9.853 -10.681 -31.734  0.00  0.00    -0.278 NA
ATOM     15  C   UNL     1       9.124 -10.415 -32.732  0.00  0.00    +0.079 C 
ATOM     24  C   UNL     1       8.354 -11.460 -33.474  0.00  0.00    +0.011 A 
ATOM     25  C   UNL     1       8.248 -11.281 -34.847  0.00  0.00    +0.030 A 
ATOM     26  C   UNL     1       7.512 -12.206 -35.574  0.00  0.00    +0.042 A 
ATOM     27 CL   UNL     1       7.395 -12.027 -37.330  0.00  0.00    -0.084 Cl
ATOM     28  C   UNL     1       6.896 -13.263 -34.958  0.00  0.00    +0.021 A 
ATOM     29  C   UNL     1       6.983 -13.446 -33.608  0.00  0.00    +0.012 A 
ATOM     30  C   UNL     1       7.720 -12.545 -32.849  0.00  0.00    +0.010 A 
ATOM     31  C   UNL     1       7.731 -12.803 -31.384  0.00  0.00    +0.082 A 
ATOM     32  N   UNL     1       6.608 -13.299 -30.844  0.00  0.00    -0.212 NA
ENDROOT
BRANCH  15  16
ATOM     16  C   UNL     1       8.917  -9.000 -33.200  0.00  0.00    +0.071 A 
ATOM     17  C   UNL     1       9.942  -8.264 -33.752  0.00  0.00    +0.135 A 
ATOM     18  F   UNL     1      11.119  -8.833 -33.851  0.00  0.00    -0.205 F 
ATOM     19  C   UNL     1       9.741  -6.960 -34.196  0.00  0.00    +0.039 A 
ATOM     20  C   UNL     1       8.485  -6.382 -34.086  0.00  0.00    +0.006 A 
ATOM     21  C   UNL     1       7.439  -7.130 -33.551  0.00  0.00    +0.039 A 
ATOM     22  C   UNL     1       7.652  -8.436 -33.111  0.00  0.00    +0.135 A 
ATOM     23  F   UNL     1       6.641  -9.157 -32.587  0.00  0.00    -0.205 F 
ENDBRANCH  15  16
BRANCH   7   6
ATOM      3  C   UNL     1       1.649 -14.859 -30.465  0.00  0.00    +0.037 A 
ATOM      4  C   UNL     1       2.003 -15.241 -29.168  0.00  0.00    +0.015 A 
ATOM      5  C   UNL     1       3.315 -15.083 -28.722  0.00  0.00    +0.028 A 
ATOM      6  C   UNL     1       4.288 -14.543 -29.568  0.00  0.00    +0.068 A 
ATOM     33  C   UNL     1       3.940 -14.186 -30.868  0.00  0.00    +0.028 A 
ATOM     34  C   UNL     1       2.636 -14.348 -31.311  0.00  0.00    +0.015 A 
BRANCH   3   2
ATOM      1  O   UNL     1      -0.436 -14.091 -31.400  0.00  0.00    -0.270 OA
ATOM      2  C   UNL     1       0.220 -15.038 -30.964  0.00  0.00    +0.247 C 
ATOM     35  N   UNL     1      -0.343 -16.257 -30.922  0.00  0.00    -0.295 N 
ATOM     36  C   UNL     1       0.336 -17.459 -31.415  0.00  0.00    +0.123 C 
ATOM     37  C   UNL     1       0.245 -18.491 -30.289  0.00  0.00    +0.103 C 
ATOM     38  N   UNL     1      -1.157 -18.752 -29.887  0.00  0.00    -0.302 NA
ATOM     39  C   UNL     1      -1.221 -19.823 -28.873  0.00  0.00    +0.105 C 
ATOM     40  C   UNL     1      -1.760 -17.493 -29.392  0.00  0.00    +0.103 C 
ATOM     41  C   UNL     1      -1.741 -16.430 -30.502  0.00  0.00    +0.123 C 
ENDBRANCH   3   2
ENDBRANCH   7   6
TORSDOF 3
