REMARK  Name = 6AUD
REMARK  10 active torsions:
REMARK  status: ('A' for Active; 'I' for Inactive)
REMARK    1  A    between atoms: C_3  and  C_26
REMARK    2  A    between atoms: C_4  and  C_6
REMARK    3  A    between atoms: C_4  and  C_20
REMARK    4  A    between atoms: C_4  and  N_30
REMARK    5  A    between atoms: C_10  and  S_34
REMARK    6  A    between atoms: C_16  and  S_34
REMARK    7  A    between atoms: C_22  and  C_23
REMARK    8  A    between atoms: C_22  and  C_24
REMARK    9  A    between atoms: C_22  and  C_25
REMARK   10  A    between atoms: C_22  and  N_29
REMARK                            x       y       z     vdW  Elec       q    Type
REMARK                         _______ _______ _______ _____ _____    ______ ____
ROOT
ATOM      8  C   UNL     1      19.681  -7.200  20.076  0.00  0.00    +0.126 A 
ATOM      9  N   UNL     1      18.535  -6.507  19.910  0.00  0.00    -0.224 NA
ATOM     10  C   UNL     1      17.571  -7.035  20.621  0.00  0.00    +0.145 A 
ATOM     11  N   UNL     1      18.114  -8.134  21.296  0.00  0.00    -0.326 N 
ATOM     12  C   UNL     1      17.492  -9.082  22.221  0.00  0.00    +0.164 C 
ATOM     13  C   UNL     1      16.148  -8.622  22.751  0.00  0.00    +0.250 C 
ATOM     14  O   UNL     1      15.288  -8.505  21.634  0.00  0.00    -0.489 OA
ATOM     15  C   UNL     1      15.081  -7.266  21.167  0.00  0.00    +0.131 A 
ATOM     16  C   UNL     1      13.811  -6.725  21.195  0.00  0.00    +0.047 A 
ATOM     17  C   UNL     1      13.590  -5.448  20.727  0.00  0.00    +0.021 A 
ATOM     18  C   UNL     1      14.637  -4.696  20.230  0.00  0.00    +0.040 A 
ATOM     31  C   UNL     1      15.916  -5.225  20.206  0.00  0.00    +0.032 A 
ATOM     32  C   UNL     1      16.171  -6.510  20.676  0.00  0.00    +0.060 A 
ATOM     33  C   UNL     1      19.414  -8.211  20.938  0.00  0.00    +0.119 A 
ENDROOT
BRANCH   8   3
ATOM      1  C   UNL     1      23.131  -7.337  19.126  0.00  0.00    +0.245 A 
ATOM      2  N   UNL     1      22.060  -7.732  19.800  0.00  0.00    -0.213 NA
ATOM      3  C   UNL     1      21.019  -6.988  19.482  0.00  0.00    +0.179 A 
ATOM      4  N   UNL     1      21.437  -6.073  18.568  0.00  0.00    -0.241 N 
ATOM     34  N   UNL     1      22.802  -6.331  18.363  0.00  0.00    -0.158 NA
BRANCH   4   5
ATOM      5  C   UNL     1      20.675  -5.019  17.892  0.00  0.00    +0.103 C 
ATOM      6  C   UNL     1      20.264  -3.939  18.893  0.00  0.00    +0.032 C 
ATOM      7  C   UNL     1      21.586  -4.376  16.845  0.00  0.00    +0.032 C 
ENDBRANCH   4   5
ENDBRANCH   8   3
BRANCH  18  19
ATOM     19  S   UNL     1      14.340  -3.058  19.638  0.00  0.00    +0.057 S 
ATOM     20  O   UNL     1      15.581  -2.715  19.038  0.00  0.00    -0.252 OA
BRANCH  19  21
ATOM     21  C   UNL     1      13.070  -3.258  18.351  0.00  0.00    +0.086 C 
ATOM     22  C   UNL     1      13.110  -2.091  17.361  0.00  0.00    +0.032 C 
ATOM     23  C   UNL     1      12.074  -2.339  16.259  0.00  0.00    +0.086 C 
ATOM     24  N   UNL     1      10.717  -2.503  16.812  0.00  0.00    -0.297 NA
ATOM     29  C   UNL     1      10.660  -3.545  17.850  0.00  0.00    +0.086 C 
ATOM     30  C   UNL     1      11.669  -3.260  18.964  0.00  0.00    +0.032 C 
BRANCH  24  25
ATOM     25  C   UNL     1       9.697  -2.693  15.755  0.00  0.00    +0.014 C 
ATOM     26  C   UNL     1       9.178  -1.322  15.316  0.00  0.00    +0.027 C 
ATOM     27  C   UNL     1       8.509  -3.515  16.268  0.00  0.00    +0.027 C 
ATOM     28  C   UNL     1      10.286  -3.419  14.540  0.00  0.00    +0.027 C 
ENDBRANCH  24  25
ENDBRANCH  19  21
ENDBRANCH  18  19
TORSDOF 5
