REMARK  Name = 5AV0
REMARK  4 active torsions:
REMARK  status: ('A' for Active; 'I' for Inactive)
REMARK    1  A    between atoms: C_2  and  O_19
REMARK    2  A    between atoms: C_9  and  C_11
REMARK    3  A    between atoms: C_13  and  O_18
REMARK    4  A    between atoms: C_14  and  O_17
REMARK                            x       y       z     vdW  Elec       q    Type
REMARK                         _______ _______ _______ _____ _____    ______ ____
ROOT
ATOM      1  C   UNL     1     -24.799   4.998  -8.879  0.00  0.00    +0.046 A 
ATOM      2  C   UNL     1     -23.875   4.090  -9.397  0.00  0.00    +0.019 A 
ATOM      3  C   UNL     1     -24.052   3.587 -10.679  0.00  0.00    +0.065 A 
ATOM      4  C   UNL     1     -23.122   2.680 -11.179  0.00  0.00    +0.200 C 
ATOM      5  O   UNL     1     -22.159   2.341 -10.488  0.00  0.00    -0.286 OA
ATOM      6  C   UNL     1     -23.297   2.209 -12.477  0.00  0.00    +0.064 C 
ATOM     17  C   UNL     1     -24.401   2.644 -13.194  0.00  0.00    +0.208 C 
ATOM     18  O   UNL     1     -25.322   3.519 -12.698  0.00  0.00    -0.462 OA
ATOM     19  C   UNL     1     -25.145   4.011 -11.437  0.00  0.00    +0.142 A 
ATOM     20  C   UNL     1     -26.065   4.916 -10.927  0.00  0.00    +0.092 A 
ATOM     21  C   UNL     1     -25.889   5.410  -9.648  0.00  0.00    +0.120 A 
ENDROOT
BRANCH   6   7
ATOM      7  C   UNL     1     -22.424   1.302 -13.085  0.00  0.00    -0.008 A 
ATOM      8  C   UNL     1     -22.033   1.505 -14.413  0.00  0.00    +0.012 A 
ATOM      9  C   UNL     1     -21.168   0.616 -15.052  0.00  0.00    +0.050 A 
ATOM     10  C   UNL     1     -20.709  -0.491 -14.342  0.00  0.00    +0.158 A 
ATOM     13  C   UNL     1     -21.103  -0.701 -13.023  0.00  0.00    +0.159 A 
ATOM     16  C   UNL     1     -21.965   0.186 -12.392  0.00  0.00    +0.058 A 
BRANCH  10  11
ATOM     11  O   UNL     1     -19.865  -1.410 -14.886  0.00  0.00    -0.503 OA
ATOM     12  H   UNL     1     -18.977  -1.444 -14.327  0.00  0.00    +0.292 HD
ENDBRANCH  10  11
BRANCH  13  14
ATOM     14  O   UNL     1     -20.615  -1.804 -12.387  0.00  0.00    -0.503 OA
ATOM     15  H   UNL     1     -20.070  -1.508 -11.540  0.00  0.00    +0.292 HD
ENDBRANCH  13  14
ENDBRANCH   6   7
BRANCH  21  22
ATOM     22  O   UNL     1     -26.790   6.303  -9.163  0.00  0.00    -0.507 OA
ATOM     23  H   UNL     1     -27.237   5.914  -8.296  0.00  0.00    +0.292 HD
ENDBRANCH  21  22
TORSDOF 4
