REMARK  Name = 4e93_ligand
REMARK  12 active torsions:
REMARK  status: ('A' for Active; 'I' for Inactive)
REMARK    1  A    between atoms: C2_2  and  N29_29
REMARK    2  A    between atoms: N7_7  and  C8_8
REMARK    3  A    between atoms: C11_11  and  N16_16
REMARK    4  A    between atoms: C13_13  and  O14_14
REMARK    5  A    between atoms: O14_14  and  C15_15
REMARK    6  A    between atoms: C19_19  and  N22_22
REMARK    7  A    between atoms: N25_25  and  C28_28
REMARK    8  A    between atoms: N29_29  and  C30_30
REMARK    9  A    between atoms: C31_31  and  S36_36
REMARK   10  A    between atoms: S36_36  and  C37_37
REMARK   11  A    between atoms: C37_37  and  C38_38
REMARK   12  A    between atoms: C37_37  and  C39_39
REMARK                            x       y       z     vdW  Elec       q    Type
REMARK                         _______ _______ _______ _____ _____    ______ ____
ROOT
ATOM      1  C   UNL     1       2.077  14.391  23.701  0.00  0.00    +0.098 A 
ATOM      2 CL   UNL     1       3.247  13.459  22.850  0.00  0.00    -0.075 Cl
ATOM      3  C   UNL     1       0.745  13.999  23.712  0.00  0.00    +0.100 A 
ATOM      4  N   UNL     1      -0.157  14.694  24.379  0.00  0.00    -0.270 NA
ATOM      5  C   UNL     1       0.228  15.772  25.141  0.00  0.00    +0.190 A 
ATOM      6  N   UNL     1      -0.707  16.423  25.782  0.00  0.00    -0.254 N 
ATOM      7  H   UNL     1      -1.668  16.092  25.615  0.00  0.00    +0.212 HD
ATOM     31  N   UNL     1       1.488  16.183  25.149  0.00  0.00    -0.235 NA
ATOM     32  C   UNL     1       2.449  15.500  24.494  0.00  0.00    +0.147 A 
ENDROOT
BRANCH   6   8
ATOM      8  C   UNL     1      -0.596  17.473  26.637  0.00  0.00    +0.083 A 
ATOM      9  C   UNL     1      -1.674  18.328  26.739  0.00  0.00    +0.105 A 
ATOM     12  C   UNL     1      -1.648  19.467  27.560  0.00  0.00    +0.017 A 
ATOM     13  C   UNL     1      -0.488  19.708  28.316  0.00  0.00    +0.020 A 
ATOM     29  C   UNL     1       0.615  18.867  28.192  0.00  0.00    -0.024 A 
ATOM     30  C   UNL     1       0.570  17.753  27.349  0.00  0.00    -0.009 A 
BRANCH  13  14
ATOM     14  N   UNL     1      -0.365  20.864  29.148  0.00  0.00    -0.316 N 
ATOM     15  C   UNL     1      -0.939  22.143  28.603  0.00  0.00    +0.132 C 
ATOM     16  C   UNL     1      -0.950  23.342  29.625  0.00  0.00    +0.077 C 
ATOM     17  C   UNL     1       0.278  23.409  30.584  0.00  0.00    +0.068 C 
ATOM     27  C   UNL     1       0.526  22.041  31.241  0.00  0.00    +0.077 C 
ATOM     28  C   UNL     1       0.637  20.854  30.266  0.00  0.00    +0.132 C 
BRANCH  17  18
ATOM     18  N   UNL     1      -0.018  24.508  31.619  0.00  0.00    +0.245 N 
ATOM     19  H   UNL     1      -0.746  24.218  32.252  0.00  0.00    +0.204 HD
ATOM     20  C   UNL     1      -0.518  25.535  30.744  0.00  0.00    +0.183 C 
ATOM     21  C   UNL     1      -0.462  26.939  31.312  0.00  0.00    +0.183 C 
ATOM     22  N   UNL     1      -0.283  26.914  32.755  0.00  0.00    +0.240 N 
ATOM     23  H   UNL     1      -1.156  26.597  33.146  0.00  0.00    +0.203 HD
ATOM     24  C   UNL     1      -0.067  28.313  33.181  0.00  0.00    +0.191 C 
ATOM     25  C   UNL     1       0.763  26.032  33.334  0.00  0.00    +0.183 C 
ATOM     26  C   UNL     1       1.137  24.819  32.408  0.00  0.00    +0.183 C 
ENDBRANCH  17  18
ENDBRANCH  13  14
BRANCH   9  10
ATOM     10  O   UNL     1      -2.773  18.031  26.015  0.00  0.00    -0.328 OA
ATOM     11  C   UNL     1      -3.847  18.980  26.119  0.00  0.00    +0.229 C 
ENDBRANCH   9  10
ENDBRANCH   6   8
BRANCH  32  33
ATOM     33  N   UNL     1       3.734  15.867  24.511  0.00  0.00    -0.254 N 
ATOM     34  H   UNL     1       4.389  15.273  23.983  0.00  0.00    +0.217 HD
BRANCH  33  35
ATOM     35  C   UNL     1       4.270  16.941  25.151  0.00  0.00    +0.089 A 
ATOM     36  C   UNL     1       3.502  18.046  25.485  0.00  0.00    +0.017 A 
ATOM     37  C   UNL     1       3.994  19.206  26.116  0.00  0.00    -0.013 A 
ATOM     38  C   UNL     1       5.347  19.216  26.442  0.00  0.00    -0.019 A 
ATOM     39  C   UNL     1       6.136  18.102  26.167  0.00  0.00    +0.014 A 
ATOM     40  C   UNL     1       5.636  16.957  25.493  0.00  0.00    +0.112 A 
BRANCH  40  41
ATOM     41  S   UNL     1       6.712  15.695  25.216  0.00  0.00    -0.003 S 
ATOM     42  O   UNL     1       6.278  14.826  24.087  0.00  0.00    -0.171 OA
ATOM     43  O   UNL     1       8.126  16.155  24.964  0.00  0.00    -0.171 OA
BRANCH  41  44
ATOM     44  C   UNL     1       6.793  14.693  26.727  0.00  0.00    +0.128 C 
ATOM     45  C   UNL     1       7.206  15.525  27.937  0.00  0.00    +0.032 C 
ATOM     46  C   UNL     1       5.407  14.096  26.957  0.00  0.00    +0.032 C 
ENDBRANCH  41  44
ENDBRANCH  40  41
ENDBRANCH  33  35
ENDBRANCH  32  33
TORSDOF 8
