REMARK  Name = 5ZAN
REMARK  4 active torsions:
REMARK  status: ('A' for Active; 'I' for Inactive)
REMARK    1  A    between atoms: N2_7  and  C8_8
REMARK    2  A    between atoms: C16_15  and  C18_25
REMARK    3  A    between atoms: C14_17  and  N26_18
REMARK    4  A    between atoms: C19_26  and  C20_27
REMARK                            x       y       z     vdW  Elec       q    Type
REMARK                         _______ _______ _______ _____ _____    ______ ____
ROOT
ATOM      6  C   UNL     1      -0.271  36.815  -2.801  0.00  0.00    +0.050 A 
ATOM      7  C   UNL     1      -0.946  35.786  -2.130  0.00  0.00    -0.130 A 
ATOM      8  C   UNL     1      -1.600  34.822  -2.859  0.00  0.00    +0.000 A 
ATOM      9  N   UNL     1      -2.243  33.821  -2.247  0.00  0.00    -0.380 NA
ATOM     10  C   UNL     1      -2.865  32.877  -2.984  0.00  0.00    +0.760 A 
ATOM     19  N   UNL     1      -2.908  32.885  -4.342  0.00  0.00    -0.760 NA
ATOM     20  C   UNL     1      -2.305  33.833  -5.090  0.00  0.00    +0.430 A 
ATOM     28  C   UNL     1      -1.584  34.884  -4.340  0.00  0.00    +0.000 A 
ATOM     29  C   UNL     1      -0.918  35.922  -4.957  0.00  0.00    -0.130 A 
ATOM     30  C   UNL     1      -0.285  36.869  -4.199  0.00  0.00    -0.130 A 
ENDROOT
BRANCH   6   5
ATOM      1  C   UNL     1      -1.131  41.515  -1.681  0.00  0.00    +0.050 C 
ATOM      2  N   UNL     1      -0.206  40.372  -1.570  0.00  0.00    -0.600 NA
ATOM      3  C   UNL     1      -0.854  39.261  -0.832  0.00  0.00    +0.100 C 
ATOM      4  C   UNL     1       0.121  38.101  -0.694  0.00  0.00    +0.000 C 
ATOM      5  N   UNL     1       0.385  37.829  -2.101  0.00  0.00    -0.250 N 
ATOM     31  C   UNL     1       1.255  38.794  -2.767  0.00  0.00    +0.000 C 
ATOM     32  C   UNL     1       0.283  39.965  -2.913  0.00  0.00    +0.100 C 
ENDBRANCH   6   5
BRANCH  20  21
ATOM     21  N   UNL     1      -2.294  33.829  -6.451  0.00  0.00    -0.100 NA
ATOM     22  C   UNL     1      -2.759  32.818  -7.214  0.00  0.00    +0.100 C 
ATOM     23  C   UNL     1      -3.319  31.571  -6.974  0.00  0.00    -0.100 C 
ATOM     24  C   UNL     1      -3.590  31.062  -8.229  0.00  0.00    +0.100 C 
ATOM     25  C   UNL     1      -4.212  29.697  -8.289  0.00  0.00    -0.150 C 
ATOM     26  N   UNL     1      -3.217  31.932  -9.159  0.00  0.00    -0.100 NA
ATOM     27  N   UNL     1      -2.676  33.069  -8.542  0.00  0.00    -0.050 NA
ENDBRANCH  20  21
BRANCH  10  11
ATOM     11  C   UNL     1      -3.568  31.847  -2.221  0.00  0.00    -0.100 C 
ATOM     12  C   UNL     1      -4.402  30.987  -2.815  0.00  0.00    -0.100 C 
BRANCH  12  13
ATOM     13  C   UNL     1      -5.042  29.977  -1.959  0.00  0.00    +0.000 A 
ATOM     14  C   UNL     1      -5.239  28.698  -2.456  0.00  0.00    -0.130 A 
ATOM     15  C   UNL     1      -5.736  27.700  -1.625  0.00  0.00    -0.130 A 
ATOM     16  C   UNL     1      -6.023  27.988  -0.288  0.00  0.00    -0.130 A 
ATOM     17  C   UNL     1      -5.812  29.269   0.217  0.00  0.00    -0.130 A 
ATOM     18  C   UNL     1      -5.324  30.263  -0.615  0.00  0.00    -0.130 A 
ENDBRANCH  12  13
ENDBRANCH  10  11
TORSDOF 4
