REMARK  Name = 4R5Y
REMARK  4 active torsions:
REMARK  status: ('A' for Active; 'I' for Inactive)
REMARK    1  A    between atoms: C_2  and  C_5
REMARK    2  A    between atoms: C_13  and  C_14
REMARK    3  A    between atoms: C_23  and  O_24
REMARK    4  A    between atoms: O_24  and  C_25
REMARK                            x       y       z     vdW  Elec       q    Type
REMARK                         _______ _______ _______ _____ _____    ______ ____
ROOT
ATOM      9  C   UNL     1      16.866  12.109 -16.912  0.00  0.00    +0.107 C 
ATOM     10  C   UNL     1      16.111  13.294 -16.322  0.00  0.00    +0.078 C 
ATOM     11  C   UNL     1      15.017  12.762 -15.473  0.00  0.00    +0.005 A 
ATOM     12  C   UNL     1      14.872  12.889 -14.098  0.00  0.00    +0.053 A 
ATOM     13  C   UNL     1      13.764  12.285 -13.499  0.00  0.00    +0.129 A 
ATOM     27  C   UNL     1      12.837  11.579 -14.275  0.00  0.00    +0.050 A 
ATOM     28  C   UNL     1      13.009  11.447 -15.654  0.00  0.00    +0.049 A 
ATOM     29  C   UNL     1      14.121  12.053 -16.219  0.00  0.00    +0.125 A 
ATOM     30  O   UNL     1      14.487  12.065 -17.536  0.00  0.00    -0.487 OA
ATOM     31  C   UNL     1      15.741  12.762 -17.716  0.00  0.00    +0.193 C 
ENDROOT
BRANCH   9   8
ATOM      3  C   UNL     1      22.612  12.664 -18.607  0.00  0.00    +0.057 A 
ATOM      4  C   UNL     1      21.716  11.956 -17.820  0.00  0.00    +0.040 A 
ATOM      5  C   UNL     1      20.367  12.294 -17.812  0.00  0.00    +0.067 A 
ATOM      6  N   UNL     1      19.320  11.774 -17.153  0.00  0.00    -0.342 N 
ATOM      7  H   UNL     1      19.367  10.945 -16.478  0.00  0.00    +0.167 HD
ATOM      8  C   UNL     1      18.203  12.453 -17.470  0.00  0.00    +0.116 A 
ATOM     32  N   UNL     1      18.536  13.418 -18.369  0.00  0.00    -0.232 NA
ATOM     33  C   UNL     1      19.882  13.339 -18.591  0.00  0.00    +0.089 A 
ATOM     34  C   UNL     1      20.775  14.057 -19.389  0.00  0.00    +0.030 A 
ATOM     35  C   UNL     1      22.132  13.716 -19.395  0.00  0.00    +0.014 A 
BRANCH   3   2
ATOM      1  F   UNL     1      24.859  13.297 -18.460  0.00  0.00    -0.166 F 
ATOM      2  C   UNL     1      24.066  12.246 -18.574  0.00  0.00    +0.417 C 
ATOM     36  F   UNL     1      24.260  11.466 -17.525  0.00  0.00    -0.166 F 
ATOM     37  F   UNL     1      24.390  11.565 -19.667  0.00  0.00    -0.166 F 
ENDBRANCH   3   2
ENDBRANCH   9   8
BRANCH  13  14
ATOM     14  O   UNL     1      13.566  12.411 -12.145  0.00  0.00    -0.456 OA
BRANCH  14  15
ATOM     15  C   UNL     1      13.810  11.387 -11.261  0.00  0.00    +0.136 A 
ATOM     16  C   UNL     1      13.737  11.632  -9.902  0.00  0.00    +0.035 A 
ATOM     17  C   UNL     1      13.387  12.997  -9.373  0.00  0.00    +0.051 C 
ATOM     18  C   UNL     1      12.477  12.808  -8.167  0.00  0.00    +0.101 C 
ATOM     19  C   UNL     1      13.032  11.780  -7.206  0.00  0.00    +0.219 C 
ATOM     20  O   UNL     1      12.671  11.793  -6.041  0.00  0.00    -0.275 OA
ATOM     21  N   UNL     1      13.909  10.888  -7.675  0.00  0.00    -0.270 N 
ATOM     22  H   UNL     1      14.557  10.378  -6.993  0.00  0.00    +0.156 HD
ATOM     23  C   UNL     1      13.990  10.619  -9.000  0.00  0.00    +0.132 A 
ATOM     24  N   UNL     1      14.307   9.379  -9.444  0.00  0.00    -0.240 NA
ATOM     25  C   UNL     1      14.389   9.111 -10.756  0.00  0.00    +0.116 A 
ATOM     26  C   UNL     1      14.146  10.107 -11.693  0.00  0.00    +0.066 A 
ENDBRANCH  14  15
ENDBRANCH  13  14
TORSDOF 4
