REMARK  Name = 3pyy_ligand
REMARK  3 active torsions:
REMARK  status: ('A' for Active; 'I' for Inactive)
REMARK    1  A    between atoms: C11_11  and  C15_15
REMARK    2  A    between atoms: C12_12  and  C18_18
REMARK    3  A    between atoms: C13_13  and  N20_20
REMARK                            x       y       z     vdW  Elec       q    Type
REMARK                         _______ _______ _______ _____ _____    ______ ____
ROOT
ATOM      5  N   UNL     1      16.122   8.930 -35.962  0.00  0.00    -0.171 N 
ATOM      6  N   UNL     1      16.804   8.043 -35.229  0.00  0.00    -0.203 NA
ATOM      7  C   UNL     1      15.854   7.295 -34.653  0.00  0.00    +0.045 A 
ATOM      8  C   UNL     1      14.554   7.725 -35.033  0.00  0.00    +0.024 A 
ATOM     25  C   UNL     1      14.768   8.789 -35.881  0.00  0.00    +0.158 A 
ENDROOT
BRANCH   8   9
ATOM      9  C   UNL     1      13.247   7.186 -34.625  0.00  0.00    +0.248 C 
ATOM     10  N   UNL     1      12.259   8.246 -34.656  0.00  0.00    -0.241 N 
ATOM     11  H   UNL     1      12.331   9.084 -34.114  0.00  0.00    +0.190 HD
ATOM     12  C   UNL     1      11.216   7.982 -35.504  0.00  0.00    +0.291 C 
ATOM     13  O   UNL     1      10.216   8.657 -35.692  0.00  0.00    -0.391 OA
ATOM     14  N   UNL     1      11.510   6.806 -36.132  0.00  0.00    -0.182 N 
ATOM     15  H   UNL     1      10.947   6.397 -36.851  0.00  0.00    +0.226 HD
ATOM     16  C   UNL     1      12.663   6.258 -35.660  0.00  0.00    +0.236 C 
ATOM     17  O   UNL     1      13.124   5.174 -35.974  0.00  0.00    -0.383 OA
ENDBRANCH   8   9
BRANCH   7  18
ATOM     18  C   UNL     1      16.268   6.247 -33.764  0.00  0.00    -0.018 A 
ATOM     19  C   UNL     1      17.320   6.492 -32.898  0.00  0.00    +0.003 A 
ATOM     20  C   UNL     1      17.754   5.508 -32.027  0.00  0.00    +0.032 A 
ATOM     21  C   UNL     1      17.138   4.278 -32.030  0.00  0.00    +0.132 A 
ATOM     22  F   UNL     1      17.546   3.301 -31.179  0.00  0.00    -0.184 F 
ATOM     23  C   UNL     1      16.093   4.038 -32.893  0.00  0.00    +0.032 A 
ATOM     24  C   UNL     1      15.656   5.016 -33.760  0.00  0.00    +0.003 A 
ENDBRANCH   7  18
BRANCH   5   4
ATOM      1  C   UNL     1      18.109  11.827 -38.090  0.00  0.00    -0.013 A 
ATOM      2  C   UNL     1      18.768  11.136 -37.098  0.00  0.00    -0.006 A 
ATOM      3  C   UNL     1      18.105  10.166 -36.381  0.00  0.00    +0.034 A 
ATOM      4  C   UNL     1      16.793   9.910 -36.689  0.00  0.00    +0.110 A 
ATOM     26  C   UNL     1      16.117  10.590 -37.670  0.00  0.00    +0.034 A 
ATOM     27  C   UNL     1      16.790  11.560 -38.378  0.00  0.00    -0.006 A 
ENDBRANCH   5   4
TORSDOF 3
