REMARK  Name = 4G6N
REMARK  1 active torsions:
REMARK  status: ('A' for Active; 'I' for Inactive)
REMARK    1  A    between atoms: C_5  and  C_8
REMARK                            x       y       z     vdW  Elec       q    Type
REMARK                         _______ _______ _______ _____ _____    ______ ____
ROOT
ATOM      6  C   UNL     1      22.106   4.804  14.778  0.00  0.00    +0.096 A 
ATOM      7  N   UNL     1      22.807   3.686  14.989  0.00  0.00    -0.173 NA
ATOM      8  N   UNL     1      22.036   2.861  15.754  0.00  0.00    -0.281 N 
ATOM      9  H   UNL     1      22.377   1.945  16.025  0.00  0.00    +0.189 HD
ATOM     10  C   UNL     1      20.822   3.468  16.048  0.00  0.00    +0.040 A 
ATOM     11  C   UNL     1      19.680   2.916  16.835  0.00  0.00    +0.055 C 
ATOM     12  C   UNL     1      18.423   3.762  16.635  0.00  0.00    +0.006 C 
ATOM     13  C   UNL     1      18.733   5.250  16.683  0.00  0.00    +0.005 C 
ATOM     14  C   UNL     1      19.689   5.671  15.573  0.00  0.00    +0.039 C 
ATOM     15  C   UNL     1      20.848   4.718  15.443  0.00  0.00    +0.001 A 
ENDROOT
BRANCH   6   5
ATOM      1 CL   UNL     1      24.191   9.200  11.282  0.00  0.00    -0.084 Cl
ATOM      2  C   UNL     1      23.590   7.905  12.281  0.00  0.00    +0.041 A 
ATOM      3  C   UNL     1      24.425   7.333  13.218  0.00  0.00    +0.020 A 
ATOM      4  C   UNL     1      23.934   6.328  14.034  0.00  0.00    +0.011 A 
ATOM      5  C   UNL     1      22.620   5.886  13.911  0.00  0.00    +0.003 A 
ATOM     16  C   UNL     1      21.802   6.476  12.950  0.00  0.00    +0.011 A 
ATOM     17  C   UNL     1      22.282   7.487  12.133  0.00  0.00    +0.020 A 
ENDBRANCH   6   5
TORSDOF 1
