REMARK  Name = 2vtn_ligand
REMARK  4 active torsions:
REMARK  status: ('A' for Active; 'I' for Inactive)
REMARK    1  A    between atoms: C1_1  and  C2_2
REMARK    2  A    between atoms: N4_4  and  C5_5
REMARK    3  A    between atoms: C10_9  and  C11_10
REMARK    4  A    between atoms: N13_12  and  C14_13
REMARK                            x       y       z     vdW  Elec       q    Type
REMARK                         _______ _______ _______ _____ _____    ______ ____
ROOT
ATOM      5  C   UNL     1      26.636   4.417  63.452  0.00  0.00    +0.101 A 
ATOM      6  C   UNL     1      27.760   4.777  64.183  0.00  0.00    +0.172 A 
ATOM     18  N   UNL     1      28.166   3.768  64.908  0.00  0.00    -0.218 N 
ATOM     19  H   UNL     1      28.967   3.753  65.556  0.00  0.00    +0.249 HD
ATOM     20  N   UNL     1      27.323   2.750  64.635  0.00  0.00    -0.215 NA
ATOM     21  C   UNL     1      26.390   3.113  63.767  0.00  0.00    +0.100 A 
ENDROOT
BRANCH   5   3
ATOM      1  C   UNL     1      24.275   6.040  61.051  0.00  0.00    +0.171 C 
ATOM      2  C   UNL     1      24.856   4.937  61.870  0.00  0.00    +0.195 C 
ATOM      3  N   UNL     1      25.950   5.256  62.589  0.00  0.00    -0.245 N 
ATOM      4  H   UNL     1      26.300   6.187  62.490  0.00  0.00    +0.218 HD
ATOM     22  O   UNL     1      24.379   3.816  61.875  0.00  0.00    -0.388 OA
ENDBRANCH   5   3
BRANCH   6   7
ATOM      7  C   UNL     1      28.483   6.071  64.220  0.00  0.00    +0.239 C 
ATOM      8  N   UNL     1      29.654   6.080  64.881  0.00  0.00    -0.238 N 
ATOM      9  H   UNL     1      29.926   5.225  65.323  0.00  0.00    +0.223 HD
ATOM     17  O   UNL     1      28.046   7.058  63.649  0.00  0.00    -0.387 OA
BRANCH   8  10
ATOM     10  C   UNL     1      30.523   7.152  65.013  0.00  0.00    +0.061 A 
ATOM     11  C   UNL     1      30.781   7.988  63.923  0.00  0.00    +0.007 A 
ATOM     12  C   UNL     1      31.643   9.059  64.058  0.00  0.00    +0.015 A 
ATOM     13  C   UNL     1      32.242   9.291  65.283  0.00  0.00    +0.116 A 
ATOM     14  F   UNL     1      33.079  10.334  65.419  0.00  0.00    -0.196 F 
ATOM     15  C   UNL     1      32.003   8.479  66.369  0.00  0.00    +0.015 A 
ATOM     16  C   UNL     1      31.145   7.405  66.234  0.00  0.00    +0.007 A 
ENDBRANCH   8  10
ENDBRANCH   6   7
TORSDOF 3
