REMARK  Name = 1A3
REMARK  5 active torsions:
REMARK  status: ('A' for Active; 'I' for Inactive)
REMARK    1  A    between atoms: CAR_6  and  CAN_7
REMARK    2  A    between atoms: CAN_7  and  SAW_8
REMARK    3  A    between atoms: SAW_8  and  NAO_11
REMARK    4  A    between atoms: NAO_11  and  CAS_12
REMARK    5  A    between atoms: CAT_17  and  CAU_18
REMARK                            x       y       z     vdW  Elec       q    Type
REMARK                         _______ _______ _______ _____ _____    ______ ____
ROOT
ATOM     11  C   UNL     1      -5.961   7.711   0.269  0.00  0.00    +0.091 A 
ATOM     12  C   UNL     1      -6.907   6.879   0.889  0.00  0.00    +0.019 A 
ATOM     13  C   UNL     1      -8.186   6.749   0.327  0.00  0.00    +0.014 A 
ATOM     20  C   UNL     1      -8.508   7.420  -0.842  0.00  0.00    +0.001 A 
ATOM     21  C   UNL     1      -7.577   8.236  -1.460  0.00  0.00    +0.001 A 
ATOM     22  C   UNL     1      -6.317   8.370  -0.900  0.00  0.00    +0.018 A 
ENDROOT
BRANCH  13  14
ATOM     14  C   UNL     1      -9.265   5.889   0.895  0.00  0.00    +0.063 C 
ATOM     15  C   UNL     1      -9.142   4.880   1.918  0.00  0.00    +0.110 C 
ATOM     16  S   UNL     1     -10.561   4.229   2.156  0.00  0.00    -0.049 S 
ATOM     17  C   UNL     1     -11.474   5.014   1.086  0.00  0.00    +0.296 C 
ATOM     18  O   UNL     1     -12.803   4.849   0.861  0.00  0.00    -0.261 OA
ATOM     19  N   UNL     1     -10.679   5.957   0.395  0.00  0.00    -0.173 NA
ENDBRANCH  13  14
BRANCH  11  10
ATOM     10  N   UNL     1      -4.605   7.945   0.723  0.00  0.00    -0.100 NA
BRANCH  10   7
ATOM      7  S   UNL     1      -3.895   7.553   2.148  0.00  0.00    +0.077 S 
ATOM      8  O   UNL     1      -4.681   8.166   3.226  0.00  0.00    -0.153 OA
ATOM      9  O   UNL     1      -3.860   6.124   2.320  0.00  0.00    -0.153 OA
BRANCH   7   6
ATOM      6  C   UNL     1      -2.250   8.215   2.252  0.00  0.00    +0.201 C 
BRANCH   6   2
ATOM      1  C   UNL     1      -0.157   7.151   1.379  0.00  0.00    -0.003 A 
ATOM      2  C   UNL     1      -1.159   7.191   2.341  0.00  0.00    +0.003 A 
ATOM      3  C   UNL     1      -1.114   6.293   3.397  0.00  0.00    -0.003 A 
ATOM      4  C   UNL     1      -0.102   5.347   3.487  0.00  0.00    -0.000 A 
ATOM      5  C   UNL     1       0.889   5.305   2.521  0.00  0.00    -0.000 A 
ATOM     23  C   UNL     1       0.859   6.210   1.472  0.00  0.00    -0.000 A 
ENDBRANCH   6   2
ENDBRANCH   7   6
ENDBRANCH  10   7
ENDBRANCH  11  10
TORSDOF 5
