REMARK  Name = 3f7z_ligand
REMARK  6 active torsions:
REMARK  status: ('A' for Active; 'I' for Inactive)
REMARK    1  A    between atoms: C10_2  and  C3_8
REMARK    2  A    between atoms: C20_11  and  O23_12
REMARK    3  A    between atoms: O23_12  and  C24_13
REMARK    4  A    between atoms: C17_17  and  C16_18
REMARK    5  A    between atoms: C16_18  and  S15_19
REMARK    6  A    between atoms: S15_19  and  C12_20
REMARK                            x       y       z     vdW  Elec       q    Type
REMARK                         _______ _______ _______ _____ _____    ______ ____
ROOT
ATOM      8  C   UNL     1       1.253  11.846  19.044  0.00  0.00    +0.208 A 
ATOM      9  O   UNL     1       0.069  12.366  19.672  0.00  0.00    -0.182 OA
ATOM     10  C   UNL     1       0.182  11.707  20.945  0.00  0.00    +0.263 A 
ATOM     11  N   UNL     1       1.214  10.973  21.043  0.00  0.00    -0.241 NA
ATOM     23  N   UNL     1       1.900  11.058  19.805  0.00  0.00    -0.252 NA
ENDROOT
BRANCH   8   5
ATOM      1  C   UNL     1       0.871  14.197  13.574  0.00  0.00    +0.383 C 
ATOM      2  O   UNL     1       0.129  14.099  14.804  0.00  0.00    -0.290 OA
ATOM      3  C   UNL     1       0.857  13.361  15.675  0.00  0.00    +0.128 A 
ATOM      4  C   UNL     1       0.590  13.013  16.987  0.00  0.00    +0.029 A 
ATOM      5  C   UNL     1       1.556  12.239  17.635  0.00  0.00    +0.023 A 
ATOM      6  C   UNL     1       2.731  11.825  16.997  0.00  0.00    -0.010 A 
ATOM      7  C   UNL     1       3.024  12.165  15.674  0.00  0.00    +0.017 A 
ATOM     24  C   UNL     1       2.089  12.941  15.017  0.00  0.00    +0.128 A 
ATOM     25  O   UNL     1       2.078  13.429  13.754  0.00  0.00    -0.287 OA
ENDBRANCH   8   5
BRANCH  10  12
ATOM     12  S   UNL     1      -0.965  11.962  22.099  0.00  0.00    -0.014 S 
BRANCH  12  13
ATOM     13  C   UNL     1      -2.599  11.776  21.406  0.00  0.00    +0.155 C 
BRANCH  13  14
ATOM     14  C   UNL     1      -2.826  12.306  19.989  0.00  0.00    -0.043 A 
ATOM     15  C   UNL     1      -2.821  13.682  19.733  0.00  0.00    +0.017 A 
ATOM     16  C   UNL     1      -3.023  14.168  18.439  0.00  0.00    +0.153 A 
ATOM     17  C   UNL     1      -3.257  13.182  17.325  0.00  0.00    +0.117 A 
ATOM     18  C   UNL     1      -3.267  11.819  17.635  0.00  0.00    +0.010 A 
ATOM     21  F   UNL     1      -3.012  15.503  18.227  0.00  0.00    -0.192 F 
ATOM     22  C   UNL     1      -3.054  11.397  18.945  0.00  0.00    -0.022 A 
BRANCH  17  19
ATOM     19  O   UNL     1      -3.475  13.564  16.013  0.00  0.00    -0.326 OA
ATOM     20  C   UNL     1      -2.721  14.588  15.360  0.00  0.00    +0.229 C 
ENDBRANCH  17  19
ENDBRANCH  13  14
ENDBRANCH  12  13
ENDBRANCH  10  12
TORSDOF 5
