REMARK  Name = 2waj_ligand
REMARK  3 active torsions:
REMARK  status: ('A' for Active; 'I' for Inactive)
REMARK    1  A    between atoms: C2_3  and  O_4
REMARK    2  A    between atoms: O_4  and  C1_5
REMARK    3  A    between atoms: C7_10  and  C8_14
REMARK                            x       y       z     vdW  Elec       q    Type
REMARK                         _______ _______ _______ _____ _____    ______ ____
ROOT
ATOM      1 CL   UNL     1      18.603   6.601  33.111  0.00  0.00    -0.071 Cl
ATOM      2  C   UNL     1      19.919   7.681  32.578  0.00  0.00    +0.079 A 
ATOM      3  C   UNL     1      19.761   9.062  32.693  0.00  0.00    +0.032 A 
ATOM      4  C   UNL     1      20.788   9.901  32.271  0.00  0.00    +0.008 A 
ATOM      5  C   UNL     1      20.671  11.381  32.381  0.00  0.00    +0.055 A 
ATOM     13  N   UNL     1      21.498  12.069  31.714  0.00  0.00    -0.299 NA
ATOM     14  C   UNL     1      22.498  11.603  30.751  0.00  0.00    +0.077 A 
ATOM     15  C   UNL     1      23.072  10.295  31.286  0.00  0.00    +0.028 A 
ATOM     16  C   UNL     1      21.965   9.371  31.745  0.00  0.00    -0.014 A 
ATOM     17  C   UNL     1      22.116   7.990  31.628  0.00  0.00    +0.030 A 
ATOM     18  C   UNL     1      21.081   7.145  32.054  0.00  0.00    +0.112 A 
ENDROOT
BRANCH   5   6
ATOM      6  C   UNL     1      19.641  12.027  33.279  0.00  0.00    +0.004 A 
ATOM      7  C   UNL     1      18.899  13.121  32.856  0.00  0.00    +0.020 A 
ATOM      8  C   UNL     1      17.931  13.716  33.670  0.00  0.00    +0.008 A 
ATOM      9  C   UNL     1      17.741  13.213  34.945  0.00  0.00    +0.017 A 
ATOM     10  C   UNL     1      18.491  12.123  35.387  0.00  0.00    +0.017 A 
ATOM     11 BR   UNL     1      18.252  11.429  37.128  0.00  0.00    -0.049 Br
ATOM     12  C   UNL     1      19.425  11.526  34.553  0.00  0.00    +0.028 A 
ENDBRANCH   5   6
BRANCH  18  19
ATOM     19  O   UNL     1      21.192   5.784  31.940  0.00  0.00    -0.317 OA
ATOM     20  C   UNL     1      22.210   5.240  31.089  0.00  0.00    +0.235 C 
ENDBRANCH  18  19
TORSDOF 2
