REMARK  Name = 5I35
REMARK  11 active torsions:
REMARK  status: ('A' for Active; 'I' for Inactive)
REMARK    1  A    between atoms: P_1  and  N_8
REMARK    2  A    between atoms: P_5  and  N_8
REMARK    3  A    between atoms: P_5  and  O_12
REMARK    4  A    between atoms: P_9  and  O_12
REMARK    5  A    between atoms: P_9  and  O_13
REMARK    6  A    between atoms: O_13  and  C_14
REMARK    7  A    between atoms: C_14  and  C_15
REMARK    8  A    between atoms: C_17  and  O_18
REMARK    9  A    between atoms: C_19  and  O_20
REMARK   10  A    between atoms: C_21  and  N_22
REMARK   11  A    between atoms: C_26  and  N_27
REMARK                            x       y       z     vdW  Elec       q    Type
REMARK                         _______ _______ _______ _____ _____    ______ ____
ROOT
ATOM      8  C   UNL     1      60.407  27.818  21.285  0.00  0.00    +0.178 C 
ATOM      9  C   UNL     1      60.325  28.330  19.861  0.00  0.00    +0.178 C 
ATOM     10  C   UNL     1      61.644  27.776  19.301  0.00  0.00    +0.195 C 
ATOM     11  C   UNL     1      61.629  26.336  19.895  0.00  0.00    +0.253 C 
ATOM     28  O   UNL     1      60.969  26.473  21.151  0.00  0.00    -0.346 OA
ENDROOT
BRANCH  11  12
ATOM     12  N   UNL     1      60.914  25.326  19.010  0.00  0.00    -0.285 N 
ATOM     13  C   UNL     1      61.475  24.802  17.906  0.00  0.00    +0.167 A 
ATOM     14  N   UNL     1      62.700  24.955  17.328  0.00  0.00    -0.216 NA
ATOM     15  C   UNL     1      63.040  24.290  16.201  0.00  0.00    +0.225 A 
ATOM     16  N   UNL     1      62.157  23.454  15.576  0.00  0.00    -0.219 NA
ATOM     17  C   UNL     1      60.894  23.223  16.060  0.00  0.00    +0.147 A 
ATOM     21  C   UNL     1      60.472  23.906  17.308  0.00  0.00    +0.147 A 
ATOM     22  N   UNL     1      59.336  23.971  18.064  0.00  0.00    -0.231 NA
ATOM     23  C   UNL     1      59.644  24.825  19.113  0.00  0.00    +0.203 A 
BRANCH  17  18
ATOM     18  N   UNL     1      60.032  22.396  15.427  0.00  0.00    -0.341 N 
ATOM     19  H   UNL     1      60.330  21.900  14.527  0.00  0.00    +0.144 HD
ATOM     20  H   UNL     1      59.052  22.237  15.826  0.00  0.00    +0.144 HD
ENDBRANCH  17  18
ENDBRANCH  11  12
BRANCH  10  24
ATOM     24  O   UNL     1      62.771  28.629  19.684  0.00  0.00    -0.385 OA
ATOM     25  H   UNL     1      62.623  29.597  19.305  0.00  0.00    +0.210 HD
ENDBRANCH  10  24
BRANCH   9  26
ATOM     26  O   UNL     1      60.108  29.739  19.758  0.00  0.00    -0.386 OA
ATOM     27  H   UNL     1      59.203  29.990  20.228  0.00  0.00    +0.210 HD
ENDBRANCH   9  26
BRANCH   8   7
ATOM      7  C   UNL     1      59.074  27.788  22.035  0.00  0.00    +0.202 C 
BRANCH   7   6
ATOM      6  O   UNL     1      58.107  26.950  21.357  0.00  0.00    -0.325 OA
BRANCH   6   5
ATOM      5  P   UNL     1      56.578  27.465  21.176  0.00  0.00    +0.216 P 
ATOM     29  O   UNL     1      56.800  28.808  20.526  0.00  0.00    -0.517 OA
ATOM     30  O   UNL     1      55.878  26.346  20.380  0.00  0.00    -0.437 OA
BRANCH   5   4
ATOM      4  O   UNL     1      56.173  27.611  22.779  0.00  0.00    -0.306 OA
BRANCH   4   3
ATOM      3  P   UNL     1      55.301  28.815  23.506  0.00  0.00    +0.059 P 
ATOM     31  O   UNL     1      55.006  28.484  24.949  0.00  0.00    -0.333 OA
ATOM     32  O   UNL     1      54.036  29.127  22.647  0.00  0.00    -0.799 OA
BRANCH   3   2
ATOM      2  N   UNL     1      56.279  30.272  23.525  0.00  0.00    +0.435 NA
BRANCH   2   1
ATOM      1  P   UNL     1      55.940  31.535  22.339  0.00  0.00    -0.250 P 
ATOM     33  O   UNL     1      54.480  31.955  22.654  0.00  0.00    -0.616 OA
ATOM     34  O   UNL     1      57.161  32.412  22.600  0.00  0.00    -0.616 OA
ATOM     35  O   UNL     1      56.018  30.980  20.930  0.00  0.00    -0.687 OA
ENDBRANCH   2   1
ENDBRANCH   3   2
ENDBRANCH   4   3
ENDBRANCH   5   4
ENDBRANCH   6   5
ENDBRANCH   7   6
ENDBRANCH   8   7
TORSDOF 11
