REMARK  Name = 0Q1
REMARK  2 active torsions:
REMARK  status: ('A' for Active; 'I' for Inactive)
REMARK    1  A    between atoms: CAC_7  and  CAD_8
REMARK    2  A    between atoms: CAJ_16  and  CAK_18
REMARK                            x       y       z     vdW  Elec       q    Type
REMARK                         _______ _______ _______ _____ _____    ______ ____
ROOT
ATOM      7  C   UNL     1      30.099  16.039  -0.119  0.00  0.00    +0.004 A 
ATOM      8  C   UNL     1      29.171  16.012   0.922  0.00  0.00    -0.000 A 
ATOM      9  C   UNL     1      27.902  15.473   0.770  0.00  0.00    -0.004 A 
ATOM     10  C   UNL     1      27.550  15.010  -0.481  0.00  0.00    -0.024 A 
ATOM     11  C   UNL     1      26.213  14.409  -0.905  0.00  0.00    +0.029 C 
ATOM     12  C   UNL     1      26.461  13.920  -2.262  0.00  0.00    +0.044 C 
ATOM     13  C   UNL     1      27.807  14.524  -2.771  0.00  0.00    +0.164 C 
ATOM     14  O   UNL     1      28.625  13.523  -3.331  0.00  0.00    -0.217 OA
ATOM     21  C   UNL     1      28.447  15.083  -1.542  0.00  0.00    +0.005 A 
ATOM     22  C   UNL     1      29.740  15.608  -1.370  0.00  0.00    -0.002 A 
ENDROOT
BRANCH   7   3
ATOM      1  C   UNL     1      32.922  14.888  -1.077  0.00  0.00    +0.075 C 
ATOM      2  C   UNL     1      32.583  16.124  -0.278  0.00  0.00    +0.154 A 
ATOM      3  C   UNL     1      31.361  16.614   0.137  0.00  0.00    +0.050 A 
ATOM      4  C   UNL     1      31.666  17.807   0.806  0.00  0.00    +0.101 A 
ATOM      5  C   UNL     1      30.759  18.838   1.509  0.00  0.00    +0.056 C 
ATOM      6  N   UNL     1      32.979  18.038   0.786  0.00  0.00    -0.082 NA
ATOM     23  O   UNL     1      33.589  16.966   0.091  0.00  0.00    -0.358 OA
ENDBRANCH   7   3
BRANCH  13  15
ATOM     15  C   UNL     1      27.702  15.603  -3.852  0.00  0.00    +0.009 A 
ATOM     16  C   UNL     1      26.940  16.704  -3.550  0.00  0.00    -0.002 A 
ATOM     17  C   UNL     1      26.733  17.727  -4.478  0.00  0.00    -0.000 A 
ATOM     18  C   UNL     1      27.327  17.636  -5.721  0.00  0.00    -0.000 A 
ATOM     19  C   UNL     1      28.087  16.520  -6.030  0.00  0.00    -0.000 A 
ATOM     20  C   UNL     1      28.271  15.496  -5.099  0.00  0.00    -0.002 A 
ENDBRANCH  13  15
TORSDOF 2
