REMARK  Name = 5TX3
REMARK  8 active torsions:
REMARK  status: ('A' for Active; 'I' for Inactive)
REMARK    1  A    between atoms: N_10  and  C_11
REMARK    2  A    between atoms: C_11  and  C_12
REMARK    3  A    between atoms: C_17  and  N_18
REMARK    4  A    between atoms: C_20  and  C_21
REMARK    5  A    between atoms: C_20  and  C_22
REMARK    6  A    between atoms: C_23  and  O_24
REMARK    7  A    between atoms: N_25  and  C_26
REMARK    8  A    between atoms: C_34  and  O_35
REMARK                            x       y       z     vdW  Elec       q    Type
REMARK                         _______ _______ _______ _____ _____    ______ ____
ROOT
ATOM      1  C   UNL     1      17.171  -8.560  35.355  0.00  0.00    +0.133 A 
ATOM      2  N   UNL     1      16.858  -9.801  35.940  0.00  0.00    -0.275 N 
ATOM     14  C   UNL     1      17.825 -10.721  35.564  0.00  0.00    +0.191 C 
ATOM     17  C   UNL     1      18.875 -10.085  34.657  0.00  0.00    +0.045 C 
ATOM     18  C   UNL     1      18.973 -10.792  33.309  0.00  0.00    +0.021 C 
ATOM     19  C   UNL     1      20.334 -10.320  35.152  0.00  0.00    +0.021 C 
ATOM     20  N   UNL     1      16.522  -7.294  35.388  0.00  0.00    -0.199 NA
ATOM     21  C   UNL     1      17.062  -6.191  34.686  0.00  0.00    +0.221 A 
ATOM     22  N   UNL     1      16.426  -4.886  34.692  0.00  0.00    -0.284 N 
ATOM     23  H   UNL     1      17.121  -4.232  35.177  0.00  0.00    +0.155 HD
ATOM     36  N   UNL     1      18.263  -6.380  33.957  0.00  0.00    -0.222 NA
ATOM     37  C   UNL     1      18.882  -7.589  33.895  0.00  0.00    +0.122 A 
ATOM     38  C   UNL     1      18.272  -8.672  34.654  0.00  0.00    +0.021 A 
ENDROOT
BRANCH   2   3
ATOM      3  C   UNL     1      15.757 -10.107  36.771  0.00  0.00    +0.109 C 
ATOM      4  C   UNL     1      14.640  -9.980  35.903  0.00  0.00    -0.020 A 
ATOM      5  C   UNL     1      14.394 -10.600  34.576  0.00  0.00    +0.006 A 
ATOM      6  C   UNL     1      13.225 -10.334  33.880  0.00  0.00    +0.004 A 
ATOM      7  C   UNL     1      12.264  -9.449  34.466  0.00  0.00    +0.045 A 
ATOM      8  C   UNL     1      12.517  -8.874  35.706  0.00  0.00    +0.120 A 
ATOM     11  C   UNL     1      13.755  -9.163  36.431  0.00  0.00    -0.001 A 
ATOM     12  C   UNL     1      14.190  -8.629  37.811  0.00  0.00    +0.041 C 
ATOM     13  C   UNL     1      15.677  -9.002  37.683  0.00  0.00    +0.032 C 
BRANCH   8   9
ATOM      9  O   UNL     1      11.576  -8.005  36.267  0.00  0.00    -0.506 OA
ATOM     10  H   UNL     1      11.251  -8.388  37.189  0.00  0.00    +0.292 HD
ENDBRANCH   8   9
ENDBRANCH   2   3
BRANCH  22  24
ATOM     24  C   UNL     1      15.134  -4.590  35.290  0.00  0.00    +0.034 A 
ATOM     25  C   UNL     1      14.157  -5.549  35.516  0.00  0.00    +0.023 A 
ATOM     26  C   UNL     1      12.943  -5.189  36.090  0.00  0.00    +0.002 A 
ATOM     27  C   UNL     1      12.705  -3.856  36.464  0.00  0.00    +0.005 A 
ATOM     28  C   UNL     1      13.679  -2.890  36.262  0.00  0.00    -0.032 A 
ATOM     35  C   UNL     1      14.874  -3.266  35.670  0.00  0.00    +0.028 A 
BRANCH  28  29
ATOM     29  C   UNL     1      13.471  -1.398  36.654  0.00  0.00    +0.119 C 
BRANCH  29  30
ATOM     30  N   UNL     1      13.164  -1.168  38.060  0.00  0.00    -0.298 NA
ATOM     31  C   UNL     1      13.483   0.175  38.357  0.00  0.00    +0.085 C 
ATOM     32  C   UNL     1      14.803   0.179  39.135  0.00  0.00    +0.017 C 
ATOM     33  C   UNL     1      15.229  -1.273  39.211  0.00  0.00    +0.017 C 
ATOM     34  C   UNL     1      13.891  -2.004  38.972  0.00  0.00    +0.085 C 
ENDBRANCH  29  30
ENDBRANCH  28  29
ENDBRANCH  22  24
BRANCH  14  15
ATOM     15  O   UNL     1      17.821 -12.038  35.953  0.00  0.00    -0.367 OA
ATOM     16  H   UNL     1      17.060 -12.398  36.581  0.00  0.00    +0.212 HD
ENDBRANCH  14  15
TORSDOF 6
