REMARK  Name = 1A7
REMARK  1 active torsions:
REMARK  status: ('A' for Active; 'I' for Inactive)
REMARK    1  A    between atoms: CAL_7  and  CAK_8
REMARK                            x       y       z     vdW  Elec       q    Type
REMARK                         _______ _______ _______ _____ _____    ______ ____
ROOT
ATOM      1  F   UNL     1      -6.653   6.606   0.801  0.00  0.00    -0.204 F 
ATOM      2  C   UNL     1      -7.283   7.417  -0.027  0.00  0.00    +0.141 A 
ATOM      3  C   UNL     1      -8.658   7.326  -0.197  0.00  0.00    +0.040 A 
ATOM     10  C   UNL     1      -9.287   8.211  -1.066  0.00  0.00    +0.003 A 
ATOM     11  C   UNL     1      -8.568   9.173  -1.762  0.00  0.00    +0.000 A 
ATOM     12  C   UNL     1      -7.195   9.258  -1.587  0.00  0.00    +0.002 A 
ATOM     13  C   UNL     1      -6.558   8.381  -0.721  0.00  0.00    +0.030 A 
ENDROOT
BRANCH   3   4
ATOM      4  C   UNL     1      -9.521   6.330   0.502  0.00  0.00    +0.065 C 
ATOM      5  C   UNL     1      -9.217   5.437   1.534  0.00  0.00    +0.110 C 
ATOM      6  S   UNL     1     -10.449   4.588   1.942  0.00  0.00    -0.049 S 
ATOM      7  C   UNL     1     -11.580   5.185   0.922  0.00  0.00    +0.296 C 
ATOM      8  O   UNL     1     -12.889   4.847   0.796  0.00  0.00    -0.261 OA
ATOM      9  N   UNL     1     -10.960   6.215   0.099  0.00  0.00    -0.173 NA
ENDBRANCH   3   4
TORSDOF 1
