REMARK  Name = 4d2p_ligand
REMARK  7 active torsions:
REMARK  status: ('A' for Active; 'I' for Inactive)
REMARK    1  A    between atoms: C1_1  and  O2_2
REMARK    2  A    between atoms: O2_2  and  C3_3
REMARK    3  A    between atoms: C5_5  and  O6_6
REMARK    4  A    between atoms: C8_8  and  N9_9
REMARK    5  A    between atoms: N9_9  and  C10_10
REMARK    6  A    between atoms: C13_13  and  C16_16
REMARK    7  A    between atoms: N18_18  and  C19_19
REMARK                            x       y       z     vdW  Elec       q    Type
REMARK                         _______ _______ _______ _____ _____    ______ ____
ROOT
ATOM      8  C   UNL     1     -10.366 -37.956 -17.729  0.00  0.00    +0.063 A 
ATOM      9  C   UNL     1     -11.174 -38.751 -18.538  0.00  0.00    +0.021 A 
ATOM     10  C   UNL     1     -10.908 -40.101 -18.693  0.00  0.00    +0.012 A 
ATOM     11  C   UNL     1      -9.824 -40.685 -18.046  0.00  0.00    +0.043 A 
ATOM     28  C   UNL     1      -9.008 -39.889 -17.246  0.00  0.00    +0.012 A 
ATOM     29  C   UNL     1      -9.276 -38.540 -17.087  0.00  0.00    +0.021 A 
ENDROOT
BRANCH  11  12
ATOM     12  C   UNL     1      -9.504 -42.141 -18.210  0.00  0.00    +0.221 C 
ATOM     13  N   UNL     1     -10.470 -42.922 -18.765  0.00  0.00    -0.240 N 
ATOM     14  H   UNL     1     -11.391 -42.533 -18.767  0.00  0.00    +0.223 HD
ATOM     27  O   UNL     1      -8.416 -42.588 -17.850  0.00  0.00    -0.380 OA
BRANCH  13  15
ATOM     15  C   UNL     1     -10.349 -44.214 -19.342  0.00  0.00    +0.052 A 
ATOM     16  C   UNL     1     -11.509 -44.816 -19.811  0.00  0.00    +0.001 A 
ATOM     17  C   UNL     1     -11.474 -46.082 -20.396  0.00  0.00    -0.009 A 
ATOM     18  C   UNL     1     -12.738 -46.718 -20.913  0.00  0.00    +0.187 C 
ATOM     19  N   UNL     1     -12.382 -47.596 -22.060  0.00  0.00    +0.239 N 
ATOM     20  H   UNL     1     -11.931 -47.041 -22.770  0.00  0.00    +0.203 HD
ATOM     21  H   UNL     1     -13.224 -48.003 -22.436  0.00  0.00    +0.203 HD
ATOM     22  C   UNL     1     -11.462 -48.687 -21.642  0.00  0.00    +0.141 C 
ATOM     23  C   UNL     1     -10.135 -48.115 -21.155  0.00  0.00    +0.099 C 
ATOM     24  C   UNL     1     -10.256 -46.752 -20.520  0.00  0.00    -0.045 A 
ATOM     25  C   UNL     1      -9.097 -46.146 -20.049  0.00  0.00    -0.029 A 
ATOM     26  C   UNL     1      -9.139 -44.891 -19.472  0.00  0.00    -0.011 A 
ENDBRANCH  13  15
ENDBRANCH  11  12
BRANCH   8   6
ATOM      6  N   UNL     1     -10.713 -36.585 -17.612  0.00  0.00    -0.277 N 
ATOM      7  H   UNL     1     -11.475 -36.307 -18.247  0.00  0.00    +0.209 HD
BRANCH   6   5
ATOM      3  C   UNL     1      -9.132 -34.643 -14.854  0.00  0.00    +0.072 A 
ATOM      4  C   UNL     1      -9.590 -35.715 -15.598  0.00  0.00    +0.013 A 
ATOM      5  C   UNL     1     -10.240 -35.516 -16.813  0.00  0.00    +0.041 A 
ATOM     30  C   UNL     1     -10.443 -34.211 -17.257  0.00  0.00    +0.013 A 
ATOM     31  C   UNL     1      -9.989 -33.135 -16.509  0.00  0.00    +0.069 A 
ATOM     34  C   UNL     1      -9.343 -33.352 -15.302  0.00  0.00    +0.019 A 
BRANCH   3   2
ATOM      1  C   UNL     1      -8.187 -34.053 -12.734  0.00  0.00    +0.232 C 
ATOM      2  O   UNL     1      -8.542 -35.051 -13.688  0.00  0.00    -0.327 OA
ENDBRANCH   3   2
BRANCH  31  32
ATOM     32  O   UNL     1     -10.175 -31.869 -16.977  0.00  0.00    -0.339 OA
ATOM     33  H   UNL     1     -10.692 -31.375 -16.352  0.00  0.00    +0.248 HD
ENDBRANCH  31  32
ENDBRANCH   6   5
ENDBRANCH   8   6
TORSDOF 6
