REMARK  Name = 4U81
REMARK  7 active torsions:
REMARK  status: ('A' for Active; 'I' for Inactive)
REMARK    1  A    between atoms: O_1  and  C_27
REMARK    2  A    between atoms: C_2  and  C_7
REMARK    3  A    between atoms: C_12  and  C_16
REMARK    4  A    between atoms: N_13  and  C_21
REMARK    5  A    between atoms: N_17  and  O_25
REMARK    6  A    between atoms: O_25  and  C_26
REMARK    7  A    between atoms: C_26  and  C_27
REMARK                            x       y       z     vdW  Elec       q    Type
REMARK                         _______ _______ _______ _____ _____    ______ ____
ROOT
ATOM     10  C   UNL     1      32.421  30.456 -14.112  0.00  0.00    +0.067 A 
ATOM     11  C   UNL     1      32.507  31.336 -13.047  0.00  0.00    +0.033 A 
ATOM     12  C   UNL     1      33.722  31.929 -12.750  0.00  0.00    +0.093 A 
ATOM     13  N   UNL     1      34.818  31.674 -13.476  0.00  0.00    -0.304 N 
ATOM     14  C   UNL     1      36.060  32.174 -13.347  0.00  0.00    +0.204 A 
ATOM     15  N   UNL     1      36.858  31.671 -14.307  0.00  0.00    -0.243 NA
ATOM     16  C   UNL     1      36.104  30.846 -15.077  0.00  0.00    +0.140 A 
ATOM     17  C   UNL     1      34.767  30.844 -14.537  0.00  0.00    +0.092 A 
ATOM     18  C   UNL     1      33.564  30.191 -14.882  0.00  0.00    +0.102 A 
ENDROOT
BRANCH  18  19
ATOM     19  N   UNL     1      33.444  29.341 -15.955  0.00  0.00    -0.246 NA
ATOM     20  C   UNL     1      34.197  28.249 -16.293  0.00  0.00    +0.081 C 
ATOM     21  C   UNL     1      33.801  27.484 -17.390  0.00  0.00    +0.145 C 
ATOM     22  F   UNL     1      32.684  27.857 -18.054  0.00  0.00    -0.204 F 
ATOM     23  C   UNL     1      34.549  26.360 -17.792  0.00  0.00    +0.043 C 
ATOM     24  C   UNL     1      35.703  26.021 -17.077  0.00  0.00    -0.045 C 
ATOM     28  C   UNL     1      36.085  26.785 -15.976  0.00  0.00    -0.017 C 
ATOM     29  C   UNL     1      35.343  27.890 -15.594  0.00  0.00    +0.085 C 
BRANCH  24  25
ATOM     25  C   UNL     1      36.563  24.848 -17.414  0.00  0.00    +0.019 C 
ATOM     26  C   UNL     1      35.758  23.777 -18.147  0.00  0.00    +0.009 C 
ATOM     27  C   UNL     1      36.766  24.632 -18.907  0.00  0.00    +0.009 C 
ENDBRANCH  24  25
ENDBRANCH  18  19
BRANCH  10   8
ATOM      6  N   UNL     1      30.117  29.938 -13.468  0.00  0.00    -0.190 N 
ATOM      7  H   UNL     1      30.322  30.337 -12.496  0.00  0.00    +0.183 HD
ATOM      8  C   UNL     1      31.054  29.883 -14.399  0.00  0.00    +0.269 C 
ATOM      9  O   UNL     1      30.768  29.458 -15.512  0.00  0.00    -0.268 OA
BRANCH   6   5
ATOM      5  O   UNL     1      28.877  29.466 -13.794  0.00  0.00    -0.277 OA
BRANCH   5   4
ATOM      4  C   UNL     1      27.734  30.339 -13.714  0.00  0.00    +0.217 C 
BRANCH   4   3
ATOM      3  C   UNL     1      27.453  30.971 -15.075  0.00  0.00    +0.186 C 
BRANCH   3   1
ATOM      1  O   UNL     1      26.394  30.275 -15.730  0.00  0.00    -0.393 OA
ATOM      2  H   UNL     1      26.667  29.270 -15.867  0.00  0.00    +0.209 HD
ENDBRANCH   3   1
ENDBRANCH   4   3
ENDBRANCH   5   4
ENDBRANCH   6   5
ENDBRANCH  10   8
TORSDOF 7
