REMARK  Name = 6HHF
REMARK  7 active torsions:
REMARK  status: ('A' for Active; 'I' for Inactive)
REMARK    1  A    between atoms: CAK_6  and  CAH_7
REMARK    2  A    between atoms: CAI_17  and  CAL_18
REMARK    3  A    between atoms: CAT_23  and  CAW_24
REMARK    4  A    between atoms: CAW_24  and  NAX_25
REMARK    5  A    between atoms: CBA_30  and  NBD_31
REMARK    6  A    between atoms: CBJ_40  and  NBO_41
REMARK    7  A    between atoms: CBP_42  and  CBQ_44
REMARK                            x       y       z     vdW  Elec       q    Type
REMARK                         _______ _______ _______ _____ _____    ______ ____
ROOT
ATOM      5  C   UNL     1       5.023   3.545  16.604  0.00  0.00    +0.000 A 
ATOM      6  C   UNL     1       5.175   2.809  15.433  0.00  0.00    -0.130 A 
ATOM      7  C   UNL     1       5.727   3.406  14.300  0.00  0.00    -0.130 A 
ATOM      8  C   UNL     1       6.100   4.750  14.314  0.00  0.00    +0.000 A 
ATOM     31  C   UNL     1       5.954   5.476  15.489  0.00  0.00    -0.130 A 
ATOM     32  C   UNL     1       5.411   4.882  16.622  0.00  0.00    -0.130 A 
ENDROOT
BRANCH   5   4
ATOM      3  C   UNL     1       5.176   2.767  18.937  0.00  0.00    +0.000 A 
ATOM      4  C   UNL     1       4.472   2.932  17.733  0.00  0.00    +0.100 A 
ATOM     33  N   UNL     1       3.209   2.481  17.638  0.00  0.00    -0.480 NA
ATOM     34  C   UNL     1       2.588   1.882  18.666  0.00  0.00    +0.380 A 
ATOM     35  C   UNL     1       1.280   1.432  18.538  0.00  0.00    -0.100 A 
ATOM     36  C   UNL     1       0.648   0.810  19.612  0.00  0.00    +0.000 A 
ATOM     37  N   UNL     1       1.274   0.638  20.763  0.00  0.00    -0.400 NA
ATOM     38  C   UNL     1       2.589   1.077  20.932  0.00  0.00    +0.600 A 
ATOM     39  O   UNL     1       3.158   0.908  22.010  0.00  0.00    -0.550 OA
ATOM     40  C   UNL     1       3.240   1.703  19.876  0.00  0.00    +0.000 A 
ATOM     41  C   UNL     1       4.543   2.153  20.013  0.00  0.00    -0.130 A 
BRANCH   3   2
ATOM      1  C   UNL     1       7.538   2.816  18.325  0.00  0.00    -0.130 A 
ATOM      2  C   UNL     1       6.488   3.191  19.157  0.00  0.00    +0.000 A 
ATOM     42  C   UNL     1       6.745   3.984  20.270  0.00  0.00    -0.130 A 
ATOM     43  C   UNL     1       8.035   4.424  20.538  0.00  0.00    -0.130 A 
ATOM     44  C   UNL     1       9.080   4.059  19.699  0.00  0.00    -0.130 A 
ATOM     45  C   UNL     1       8.828   3.258  18.592  0.00  0.00    -0.130 A 
ENDBRANCH   3   2
ENDBRANCH   5   4
BRANCH   8   9
ATOM      9  C   UNL     1       6.670   5.339  13.180  0.00  0.00    +0.100 C 
BRANCH   9  10
ATOM     10  N   UNL     1       5.791   6.144  12.298  0.00  0.00    -0.600 NA
ATOM     11  C   UNL     1       6.467   6.152  10.983  0.00  0.00    +0.100 C 
ATOM     12  C   UNL     1       5.649   6.821   9.888  0.00  0.00    -0.100 C 
ATOM     13  C   UNL     1       4.328   6.087   9.812  0.00  0.00    +0.050 C 
ATOM     29  C   UNL     1       3.597   6.286  11.127  0.00  0.00    -0.100 C 
ATOM     30  C   UNL     1       4.424   5.592  12.201  0.00  0.00    +0.100 C 
BRANCH  13  14
ATOM     14  N   UNL     1       3.497   6.401   8.600  0.00  0.00    -0.200 N 
ATOM     15  C   UNL     1       2.805   5.378   8.123  0.00  0.00    +0.650 A 
ATOM     16  N   UNL     1       2.110   5.751   7.061  0.00  0.00    -0.350 NA
ATOM     17  C   UNL     1       2.368   7.039   6.861  0.00  0.00    +0.050 A 
ATOM     18  C   UNL     1       1.910   7.863   5.920  0.00  0.00    -0.130 A 
ATOM     19  C   UNL     1       2.307   9.184   5.883  0.00  0.00    -0.130 A 
ATOM     20  C   UNL     1       3.185   9.619   6.862  0.00  0.00    +0.050 A 
ATOM     26  C   UNL     1       3.638   8.718   7.822  0.00  0.00    -0.130 A 
ATOM     27  O   UNL     1       2.813   4.244   8.601  0.00  0.00    -0.550 OA
ATOM     28  C   UNL     1       3.224   7.451   7.811  0.00  0.00    +0.050 A 
BRANCH  20  21
ATOM     21  N   UNL     1       3.606  10.882   6.891  0.00  0.00    -0.350 NA
ATOM     22  C   UNL     1       2.688  11.867   6.877  0.00  0.00    +0.600 C 
ATOM     25  O   UNL     1       1.468  11.704   6.843  0.00  0.00    -0.550 OA
BRANCH  22  23
ATOM     23  C   UNL     1       3.281  13.269   6.938  0.00  0.00    -0.100 C 
ATOM     24  C   UNL     1       2.260  14.412   7.068  0.00  0.00    -0.100 C 
ENDBRANCH  22  23
ENDBRANCH  20  21
ENDBRANCH  13  14
ENDBRANCH   9  10
ENDBRANCH   8   9
TORSDOF 7
