REMARK  Name = 5TEL
REMARK  8 active torsions:
REMARK  status: ('A' for Active; 'I' for Inactive)
REMARK    1  A    between atoms: N_3  and  C_4
REMARK    2  A    between atoms: N_7  and  C_8
REMARK    3  A    between atoms: C_8  and  C_9
REMARK    4  A    between atoms: C_9  and  N_10
REMARK    5  A    between atoms: C_14  and  O_15
REMARK    6  A    between atoms: O_15  and  C_16
REMARK    7  A    between atoms: C_17  and  O_18
REMARK    8  A    between atoms: O_18  and  C_19
REMARK                            x       y       z     vdW  Elec       q    Type
REMARK                         _______ _______ _______ _____ _____    ______ ____
ROOT
ATOM      5  N   UNL     1     -22.439 -34.378 -12.342  0.00  0.00    -0.324 N 
ATOM      6  C   UNL     1     -22.735 -35.646 -12.594  0.00  0.00    +0.041 A 
ATOM      7  C   UNL     1     -22.871 -36.294 -11.429  0.00  0.00    +0.006 A 
ATOM      8  C   UNL     1     -22.658 -35.384 -10.468  0.00  0.00    -0.004 C 
ATOM      9  C   UNL     1     -22.706 -35.550  -9.137  0.00  0.00    +0.019 C 
ATOM     10  N   UNL     1     -22.483 -34.560  -8.283  0.00  0.00    -0.302 N 
ATOM     11  H   UNL     1     -22.217 -33.555  -8.536  0.00  0.00    +0.153 HD
ATOM     12  C   UNL     1     -22.650 -35.043  -7.053  0.00  0.00    +0.128 A 
ATOM     13  N   UNL     1     -22.524 -34.448  -5.856  0.00  0.00    -0.240 NA
ATOM     14  C   UNL     1     -22.756 -35.163  -4.682  0.00  0.00    +0.114 A 
ATOM     15  C   UNL     1     -23.122 -36.492  -4.790  0.00  0.00    +0.040 A 
ATOM     16  C   UNL     1     -23.234 -37.058  -6.054  0.00  0.00    +0.049 A 
ATOM     17 CL   UNL     1     -23.691 -38.722  -6.173  0.00  0.00    -0.083 Cl
ATOM     18  C   UNL     1     -23.001 -36.331  -7.152  0.00  0.00    +0.016 A 
ATOM     19  C   UNL     1     -23.049 -36.641  -8.452  0.00  0.00    +0.091 C 
ATOM     20  C   UNL     1     -23.156 -37.601 -11.418  0.00  0.00    +0.059 A 
ATOM     21  C   UNL     1     -23.315 -38.287 -12.618  0.00  0.00    +0.162 A 
ATOM     24  C   UNL     1     -23.179 -37.602 -13.810  0.00  0.00    +0.163 A 
ATOM     27  C   UNL     1     -22.869 -36.254 -13.772  0.00  0.00    +0.073 A 
ATOM     28  C   UNL     1     -22.404 -34.199 -11.024  0.00  0.00    +0.142 C 
ENDROOT
BRANCH  21  22
ATOM     22  O   UNL     1     -23.606 -39.615 -12.718  0.00  0.00    -0.491 OA
ATOM     23  C   UNL     1     -23.731 -40.237 -11.438  0.00  0.00    +0.277 C 
ENDBRANCH  21  22
BRANCH  24  25
ATOM     25  O   UNL     1     -23.324 -38.324 -14.957  0.00  0.00    -0.491 OA
ATOM     26  C   UNL     1     -23.123 -37.515 -16.119  0.00  0.00    +0.277 C 
ENDBRANCH  24  25
BRANCH   5   4
ATOM      4  C   UNL     1     -22.289 -33.487 -13.510  0.00  0.00    +0.121 C 
BRANCH   4   3
ATOM      3  C   UNL     1     -23.418 -32.452 -13.413  0.00  0.00    +0.103 C 
BRANCH   3   2
ATOM      1  C   UNL     1     -23.894 -32.278 -15.768  0.00  0.00    +0.100 C 
ATOM      2  N   UNL     1     -23.523 -31.528 -14.553  0.00  0.00    -0.298 NA
ATOM     29  C   UNL     1     -22.240 -30.841 -14.793  0.00  0.00    +0.100 C 
ATOM     30  C   UNL     1     -22.373 -29.893 -15.979  0.00  0.00    +0.099 C 
ATOM     31  N   UNL     1     -22.731 -30.656 -17.189  0.00  0.00    -0.303 NA
ATOM     32  C   UNL     1     -22.907 -29.724 -18.316  0.00  0.00    +0.105 C 
ATOM     33  C   UNL     1     -24.016 -31.324 -16.948  0.00  0.00    +0.099 C 
ENDBRANCH   3   2
ENDBRANCH   4   3
ENDBRANCH   5   4
TORSDOF 5
