REMARK  Name = 4n6z_ligand
REMARK  5 active torsions:
REMARK  status: ('A' for Active; 'I' for Inactive)
REMARK    1  A    between atoms: C10_2  and  C11_3
REMARK    2  A    between atoms: C14_4  and  N6_5
REMARK    3  A    between atoms: N3_10  and  C9_11
REMARK    4  A    between atoms: C5_16  and  N1_17
REMARK    5  A    between atoms: C_22  and  N_23
REMARK                            x       y       z     vdW  Elec       q    Type
REMARK                         _______ _______ _______ _____ _____    ______ ____
ROOT
ATOM      5  C   UNL     1     -17.402  35.161  -0.719  0.00  0.00    +0.113 A 
ATOM      6  C   UNL     1     -16.826  34.848  -1.958  0.00  0.00    +0.085 A 
ATOM     17  C   UNL     1     -15.847  33.858  -2.013  0.00  0.00    +0.026 A 
ATOM     18  C   UNL     1     -15.489  33.223  -0.843  0.00  0.00    +0.045 A 
ATOM     19  N   UNL     1     -16.022  33.496   0.347  0.00  0.00    -0.333 NA
ATOM     20  C   UNL     1     -16.956  34.449   0.394  0.00  0.00    +0.081 A 
ENDROOT
BRANCH   6   7
ATOM      7  N   UNL     1     -17.240  35.526  -3.127  0.00  0.00    -0.300 N 
ATOM      8  C   UNL     1     -16.216  35.908  -4.101  0.00  0.00    +0.184 C 
ATOM      9  C   UNL     1     -16.740  37.018  -4.993  0.00  0.00    +0.083 C 
ATOM     14  C   UNL     1     -18.007  36.547  -5.688  0.00  0.00    +0.058 C 
ATOM     15  C   UNL     1     -19.058  36.147  -4.655  0.00  0.00    +0.029 C 
ATOM     16  C   UNL     1     -18.515  35.098  -3.715  0.00  0.00    +0.130 C 
BRANCH   9  10
ATOM     10  N   UNL     1     -15.677  37.354  -5.947  0.00  0.00    +0.222 N 
ATOM     11  H   UNL     1     -14.859  37.662  -5.444  0.00  0.00    +0.200 HD
ATOM     12  H   UNL     1     -15.448  36.540  -6.495  0.00  0.00    +0.200 HD
ATOM     13  H   UNL     1     -15.994  38.091  -6.557  0.00  0.00    +0.200 HD
ENDBRANCH   9  10
ENDBRANCH   6   7
BRANCH   5   3
ATOM      1  O   UNL     1     -18.650  36.527   1.605  0.00  0.00    -0.372 OA
ATOM      2  C   UNL     1     -18.901  36.813   0.437  0.00  0.00    +0.251 C 
ATOM      3  N   UNL     1     -18.330  36.229  -0.645  0.00  0.00    -0.230 N 
ATOM      4  H   UNL     1     -18.606  36.611  -1.527  0.00  0.00    +0.224 HD
BRANCH   2  21
ATOM     21  C   UNL     1     -19.877  37.901   0.091  0.00  0.00    +0.176 A 
ATOM     22  N   UNL     1     -20.076  38.100  -1.229  0.00  0.00    -0.265 NA
ATOM     23  C   UNL     1     -20.939  39.059  -1.596  0.00  0.00    +0.114 A 
ATOM     24  C   UNL     1     -21.626  39.810  -0.668  0.00  0.00    +0.122 A 
ATOM     25  N   UNL     1     -21.452  39.637   0.649  0.00  0.00    -0.254 NA
ATOM     26  C   UNL     1     -20.569  38.695   1.057  0.00  0.00    +0.161 A 
BRANCH  26  27
ATOM     27  N   UNL     1     -20.357  38.581   2.376  0.00  0.00    -0.311 N 
ATOM     28  H   UNL     1     -19.671  37.899   2.730  0.00  0.00    +0.181 HD
ATOM     29  H   UNL     1     -20.880  39.175   3.035  0.00  0.00    +0.181 HD
ENDBRANCH  26  27
ENDBRANCH   2  21
ENDBRANCH   5   3
TORSDOF 5
