REMARK  Name = 5UT3
REMARK  3 active torsions:
REMARK  status: ('A' for Active; 'I' for Inactive)
REMARK    1  A    between atoms: N_10  and  C_18
REMARK    2  A    between atoms: C_13  and  C_17
REMARK    3  A    between atoms: C_15  and  C_16
REMARK                            x       y       z     vdW  Elec       q    Type
REMARK                         _______ _______ _______ _____ _____    ______ ____
ROOT
ATOM      7  C   UNL     1     -29.460  15.107  76.899  0.00  0.00    +0.086 A 
ATOM      8  C   UNL     1     -29.533  13.866  77.535  0.00  0.00    +0.066 A 
ATOM     14  C   UNL     1     -30.761  13.559  77.996  0.00  0.00    +0.031 A 
ATOM     15  C   UNL     1     -31.742  14.538  77.828  0.00  0.00    +0.022 A 
ATOM     22  S   UNL     1     -30.992  15.867  76.993  0.00  0.00    -0.073 S 
ENDROOT
BRANCH   7   5
ATOM      1  N   UNL     1     -27.253  17.509  75.130  0.00  0.00    -0.313 N 
ATOM      2  H   UNL     1     -26.364  16.916  75.073  0.00  0.00    +0.146 HD
ATOM      3  H   UNL     1     -27.264  18.498  74.721  0.00  0.00    +0.146 HD
ATOM      4  C   UNL     1     -28.425  16.981  75.752  0.00  0.00    +0.302 C 
ATOM      5  N   UNL     1     -28.309  15.637  76.304  0.00  0.00    -0.263 N 
ATOM      6  H   UNL     1     -27.394  15.085  76.257  0.00  0.00    +0.157 HD
ATOM     23  O   UNL     1     -29.423  17.648  75.816  0.00  0.00    -0.253 OA
ENDBRANCH   7   5
BRANCH  15  16
ATOM     16  C   UNL     1     -33.051  14.517  78.231  0.00  0.00    -0.011 A 
ATOM     17  C   UNL     1     -33.893  15.535  77.802  0.00  0.00    +0.009 A 
ATOM     18  C   UNL     1     -35.217  15.549  78.209  0.00  0.00    +0.001 A 
ATOM     19  C   UNL     1     -35.694  14.551  79.048  0.00  0.00    +0.000 A 
ATOM     20  C   UNL     1     -34.847  13.541  79.483  0.00  0.00    +0.001 A 
ATOM     21  C   UNL     1     -33.521  13.521  79.080  0.00  0.00    +0.009 A 
ENDBRANCH  15  16
BRANCH   8   9
ATOM      9  C   UNL     1     -28.238  13.062  77.479  0.00  0.00    +0.244 C 
ATOM     10  O   UNL     1     -27.273  13.582  77.012  0.00  0.00    -0.270 OA
ATOM     11  N   UNL     1     -28.153  11.678  77.925  0.00  0.00    -0.325 N 
ATOM     12  H   UNL     1     -27.887  11.052  77.099  0.00  0.00    +0.145 HD
ATOM     13  H   UNL     1     -27.409  11.594  78.690  0.00  0.00    +0.145 HD
ENDBRANCH   8   9
TORSDOF 3
