REMARK  Name = 2c5x_ligand
REMARK  5 active torsions:
REMARK  status: ('A' for Active; 'I' for Inactive)
REMARK    1  A    between atoms: N_5  and  C2_6
REMARK    2  A    between atoms: C2_6  and  C3_7
REMARK    3  A    between atoms: C5_12  and  C7_13
REMARK    4  A    between atoms: N5_19  and  C11_20
REMARK    5  A    between atoms: C15_25  and  N6_26
REMARK                            x       y       z     vdW  Elec       q    Type
REMARK                         _______ _______ _______ _____ _____    ______ ____
ROOT
ATOM      9  C   UNL     1       4.679  48.972   2.306  0.00  0.00    +0.128 A 
ATOM     10  C   UNL     1       5.563  49.992   2.651  0.00  0.00    +0.194 A 
ATOM     11  C   UNL     1       4.984  51.100   3.275  0.00  0.00    +0.218 A 
ATOM     12  N   UNL     1       3.686  51.187   3.542  0.00  0.00    -0.143 NA
ATOM     13  C   UNL     1       2.866  50.164   3.226  0.00  0.00    +0.365 A 
ATOM     14  N   UNL     1       1.555  50.269   3.464  0.00  0.00    -0.118 N 
ATOM     15  H   UNL     1       1.234  51.081   4.011  0.00  0.00    +0.351 HD
ATOM     25  N   UNL     1       3.369  49.071   2.616  0.00  0.00    -0.163 NA
ENDROOT
BRANCH   9   8
ATOM      4  C   UNL     1       4.960  45.489   1.127  0.00  0.00    +0.002 A 
ATOM      5  C   UNL     1       6.279  45.502   0.704  0.00  0.00    +0.020 A 
ATOM      6  C   UNL     1       7.034  46.673   0.756  0.00  0.00    +0.008 A 
ATOM      7  C   UNL     1       6.506  47.825   1.320  0.00  0.00    +0.022 A 
ATOM      8  C   UNL     1       5.181  47.812   1.729  0.00  0.00    +0.025 A 
ATOM     26  C   UNL     1       4.422  46.646   1.668  0.00  0.00    +0.029 A 
BRANCH   4   3
ATOM      3  C   UNL     1       4.193  44.169   1.114  0.00  0.00    +0.275 C 
BRANCH   3   2
ATOM      1  C   UNL     1       2.936  44.892  -0.880  0.00  0.00    +0.266 A 
ATOM      2  N   UNL     1       3.516  43.930  -0.158  0.00  0.00    -0.166 N 
ATOM     27  N   UNL     1       3.373  42.799  -0.632  0.00  0.00    -0.188 NA
ATOM     28  C   UNL     1       2.667  42.948  -1.754  0.00  0.00    +0.148 A 
ATOM     29  N   UNL     1       2.400  44.251  -1.914  0.00  0.00    -0.287 NA
ENDBRANCH   3   2
ENDBRANCH   4   3
ENDBRANCH   9   8
BRANCH  14  16
ATOM     16  C   UNL     1       0.624  49.396   3.044  0.00  0.00    +0.252 A 
ATOM     17  C   UNL     1      -0.730  49.729   3.132  0.00  0.00    +0.205 A 
ATOM     18  C   UNL     1      -1.733  48.848   2.745  0.00  0.00    +0.122 A 
ATOM     19  C   UNL     1      -1.364  47.597   2.264  0.00  0.00    +0.189 A 
ATOM     20  C   UNL     1      -0.023  47.239   2.129  0.00  0.00    +0.169 A 
ATOM     24  C   UNL     1       0.960  48.157   2.506  0.00  0.00    +0.238 A 
BRANCH  20  21
ATOM     21  N   UNL     1       0.291  46.039   1.607  0.00  0.00    -0.192 N 
ATOM     22  O   UNL     1       1.629  45.493   1.627  0.00  0.00    -0.484 OA
ATOM     23  O   UNL     1      -0.724  45.282   0.932  0.00  0.00    -0.484 OA
ENDBRANCH  20  21
ENDBRANCH  14  16
TORSDOF 5
