REMARK  Name = 6NFZ
REMARK  7 active torsions:
REMARK  status: ('A' for Active; 'I' for Inactive)
REMARK    1  A    between atoms: C22_10  and  C19_16
REMARK    2  A    between atoms: C12_12  and  C18_15
REMARK    3  A    between atoms: N25_19  and  C37_23
REMARK    4  A    between atoms: C37_23  and  C38_24
REMARK    5  A    between atoms: C38_24  and  N4_25
REMARK    6  A    between atoms: N4_25  and  C39_26
REMARK    7  A    between atoms: N4_25  and  C40_27
REMARK                            x       y       z     vdW  Elec       q    Type
REMARK                         _______ _______ _______ _____ _____    ______ ____
ROOT
ATOM      1  C   UNL     1     184.250 222.412 154.889  0.00  0.00    -0.150 C 
ATOM      2  C   UNL     1     184.330 223.845 155.464  0.00  0.00    +0.100 A 
ATOM      3  N   UNL     1     184.161 224.976 154.744  0.00  0.00    -0.500 NA
ATOM      4  C   UNL     1     184.300 226.065 155.569  0.00  0.00    +0.100 A 
ATOM     17  C   UNL     1     184.562 225.604 156.859  0.00  0.00    +0.000 A 
ATOM     18  C   UNL     1     184.783 226.465 158.089  0.00  0.00    -0.150 C 
ATOM     19  C   UNL     1     184.586 224.192 156.806  0.00  0.00    +0.000 A 
ENDROOT
BRANCH   4   5
ATOM      5  C   UNL     1     184.188 227.553 155.183  0.00  0.00    -0.100 C 
ATOM      6  C   UNL     1     184.154 227.975 153.907  0.00  0.00    +0.000 C 
ATOM      7  C   UNL     1     184.175 227.177 152.695  0.00  0.00    +0.600 C 
ATOM      8  O   UNL     1     184.235 225.966 152.621  0.00  0.00    -0.550 OA
ATOM      9  N   UNL     1     184.114 228.071 151.573  0.00  0.00    -0.350 NA
ATOM     10  C   UNL     1     184.052 229.475 152.100  0.00  0.00    +0.050 A 
ATOM     11  C   UNL     1     183.980 230.734 151.446  0.00  0.00    -0.130 A 
ATOM     12  C   UNL     1     183.931 231.926 152.209  0.00  0.00    -0.130 A 
ATOM     13  C   UNL     1     183.954 231.863 153.617  0.00  0.00    +0.300 A 
ATOM     14  F   UNL     1     183.908 232.994 154.336  0.00  0.00    -0.300 F 
ATOM     15  C   UNL     1     184.026 230.613 154.266  0.00  0.00    -0.130 A 
ATOM     16  C   UNL     1     184.074 229.413 153.500  0.00  0.00    +0.000 A 
ENDBRANCH   4   5
BRANCH  19  20
ATOM     20  C   UNL     1     184.834 223.235 158.000  0.00  0.00    +0.600 C 
ATOM     21  O   UNL     1     184.735 223.661 159.135  0.00  0.00    -0.550 OA
ATOM     22  N   UNL     1     185.168 221.843 157.777  0.00  0.00    -0.400 NA
BRANCH  22  23
ATOM     23  C   UNL     1     185.391 220.941 158.903  0.00  0.00    +0.000 C 
BRANCH  23  24
ATOM     24  C   UNL     1     186.255 221.599 159.997  0.00  0.00    +0.100 C 
BRANCH  24  25
ATOM     25  N   UNL     1     187.367 220.708 160.366  0.00  0.00    -0.600 NA
BRANCH  25  26
ATOM     26  C   UNL     1     188.106 221.281 161.477  0.00  0.00    +0.100 C 
ATOM     27  C   UNL     1     187.206 221.462 162.711  0.00  0.00    -0.150 C 
ENDBRANCH  25  26
BRANCH  25  28
ATOM     28  C   UNL     1     188.256 220.525 159.224  0.00  0.00    +0.100 C 
ATOM     29  C   UNL     1     189.072 219.227 159.373  0.00  0.00    -0.150 C 
ENDBRANCH  25  28
ENDBRANCH  24  25
ENDBRANCH  23  24
ENDBRANCH  22  23
ENDBRANCH  19  20
TORSDOF 7
