REMARK  Name = 4ZSL
REMARK  4 active torsions:
REMARK  status: ('A' for Active; 'I' for Inactive)
REMARK    1  A    between atoms: C_1  and  C_2
REMARK    2  A    between atoms: C_1  and  N_21
REMARK    3  A    between atoms: C_1  and  C_22
REMARK    4  A    between atoms: C_8  and  N_15
REMARK                            x       y       z     vdW  Elec       q    Type
REMARK                         _______ _______ _______ _____ _____    ______ ____
ROOT
ATOM      3  N   UNL     1      96.485  37.705  52.207  0.00  0.00    -0.289 N 
ATOM      4  H   UNL     1      96.904  37.130  53.006  0.00  0.00    +0.151 HD
ATOM      5  C   UNL     1      96.563  37.228  50.897  0.00  0.00    +0.338 C 
ATOM      6  O   UNL     1      96.068  37.803  49.899  0.00  0.00    -0.248 OA
ATOM      7  N   UNL     1      97.244  35.951  50.693  0.00  0.00    -0.148 N 
ATOM      8  N   UNL     1      98.029  35.328  51.695  0.00  0.00    -0.124 NA
ATOM      9  C   UNL     1      98.420  34.136  51.092  0.00  0.00    +0.234 A 
ATOM     10  N   UNL     1      99.120  33.190  51.688  0.00  0.00    -0.326 N 
ATOM     11  H   UNL     1      99.471  33.334  52.688  0.00  0.00    +0.145 HD
ATOM     12  H   UNL     1      99.336  32.279  51.171  0.00  0.00    +0.145 HD
ATOM     13  N   UNL     1      97.935  33.973  49.752  0.00  0.00    -0.180 NA
ATOM     14  C   UNL     1      97.213  35.113  49.530  0.00  0.00    +0.228 A 
ATOM     15  N   UNL     1      96.516  35.512  48.403  0.00  0.00    -0.283 N 
ATOM     16  H   UNL     1      96.027  36.460  48.488  0.00  0.00    +0.155 HD
ENDROOT
BRANCH  15  17
ATOM     17  C   UNL     1      96.350  34.870  47.168  0.00  0.00    +0.034 A 
ATOM     18  C   UNL     1      95.519  35.596  46.256  0.00  0.00    +0.025 A 
ATOM     19  C   UNL     1      95.233  35.056  45.008  0.00  0.00    +0.022 A 
ATOM     20  C   UNL     1      95.808  33.820  44.710  0.00  0.00    +0.041 A 
ATOM     21 CL   UNL     1      95.488  33.161  43.207  0.00  0.00    -0.084 Cl
ATOM     22  C   UNL     1      96.632  33.091  45.564  0.00  0.00    +0.022 A 
ATOM     23  C   UNL     1      96.907  33.614  46.822  0.00  0.00    +0.025 A 
ENDBRANCH  15  17
BRANCH   3   1
ATOM      1  C   UNL     1      95.834  38.986  52.499  0.00  0.00    +0.102 C 
ATOM      2  C   UNL     1      94.545  38.732  53.274  0.00  0.00    +0.033 C 
BRANCH   1  24
ATOM     24  C   UNL     1      96.745  39.918  53.272  0.00  0.00    -0.027 A 
ATOM     25  C   UNL     1      96.935  41.238  52.798  0.00  0.00    +0.005 A 
ATOM     26  C   UNL     1      97.743  42.135  53.527  0.00  0.00    +0.000 A 
ATOM     27  C   UNL     1      98.364  41.707  54.730  0.00  0.00    +0.000 A 
ATOM     28  C   UNL     1      98.189  40.386  55.201  0.00  0.00    +0.000 A 
ATOM     29  C   UNL     1      97.381  39.489  54.475  0.00  0.00    +0.005 A 
ENDBRANCH   1  24
ENDBRANCH   3   1
TORSDOF 3
