REMARK  Name = 2HY8
REMARK  6 active torsions:
REMARK  status: ('A' for Active; 'I' for Inactive)
REMARK    1  A    between atoms: C_13  and  O_36
REMARK    2  A    between atoms: C_24  and  C_35
REMARK    3  A    between atoms: C_25  and  O_33
REMARK    4  A    between atoms: C_26  and  N_31
REMARK    5  A    between atoms: N_31  and  C_32
REMARK    6  A    between atoms: O_33  and  C_34
REMARK                            x       y       z     vdW  Elec       q    Type
REMARK                         _______ _______ _______ _____ _____    ______ ____
ROOT
ATOM      1  C   UNL     1      10.399  70.141  13.535  0.00  0.00    +0.010 A 
ATOM      2  C   UNL     1      11.371  70.001  14.570  0.00  0.00    +0.008 A 
ATOM      3  C   UNL     1      12.808  69.751  14.507  0.00  0.00    +0.015 A 
ATOM      4  C   UNL     1      13.727  69.548  13.439  0.00  0.00    -0.008 A 
ATOM      5  C   UNL     1      13.555  69.510  11.929  0.00  0.00    +0.141 C 
ATOM      6  N   UNL     1      14.890  69.274  11.362  0.00  0.00    -0.307 N 
ATOM      7  H   UNL     1      15.118  69.188  10.320  0.00  0.00    +0.149 HD
ATOM      8  C   UNL     1      15.781  69.184  12.373  0.00  0.00    +0.245 C 
ATOM      9  O   UNL     1      16.970  68.987  12.219  0.00  0.00    -0.270 OA
ATOM     10  C   UNL     1      15.104  69.346  13.688  0.00  0.00    +0.052 A 
ATOM     11  C   UNL     1      15.591  69.347  15.062  0.00  0.00    +0.022 A 
ATOM     12  C   UNL     1      16.906  69.198  15.694  0.00  0.00    +0.012 A 
ATOM     13  C   UNL     1      18.213  69.034  15.151  0.00  0.00    +0.056 A 
ATOM     14  C   UNL     1      19.300  68.945  16.058  0.00  0.00    +0.118 A 
ATOM     17  C   UNL     1      19.102  69.009  17.446  0.00  0.00    +0.047 A 
ATOM     18  C   UNL     1      17.819  69.168  18.010  0.00  0.00    +0.030 A 
ATOM     19  C   UNL     1      16.707  69.280  17.115  0.00  0.00    +0.053 A 
ATOM     20  N   UNL     1      15.341  69.456  17.347  0.00  0.00    -0.312 N 
ATOM     21  C   UNL     1      14.770  69.565  18.704  0.00  0.00    +0.224 C 
ATOM     22  O   UNL     1      13.406  69.133  18.698  0.00  0.00    -0.328 OA
ATOM     23  C   UNL     1      12.369  70.017  18.243  0.00  0.00    +0.174 C 
ATOM     24  C   UNL     1      11.114  69.550  19.011  0.00  0.00    +0.069 C 
ATOM     25  C   UNL     1      12.629  71.497  18.667  0.00  0.00    +0.187 C 
ATOM     28  C   UNL     1      13.625  71.505  19.860  0.00  0.00    +0.091 C 
ATOM     32  N   UNL     1      12.188  69.953  16.742  0.00  0.00    -0.307 N 
ATOM     33  C   UNL     1      14.978  70.941  19.355  0.00  0.00    +0.076 C 
ATOM     34  C   UNL     1      14.669  69.520  16.140  0.00  0.00    +0.077 A 
ATOM     35  C   UNL     1      13.266  69.727  15.860  0.00  0.00    +0.077 A 
ATOM     36  C   UNL     1      11.018  70.133  15.958  0.00  0.00    +0.053 A 
ATOM     37  C   UNL     1       9.649  70.408  16.308  0.00  0.00    +0.026 A 
ATOM     38  C   UNL     1       8.710  70.543  15.265  0.00  0.00    +0.002 A 
ATOM     39  C   UNL     1       9.073  70.410  13.916  0.00  0.00    +0.001 A 
ENDROOT
BRANCH  28  29
ATOM     29  N   UNL     1      13.742  72.901  20.435  0.00  0.00    -0.314 NA
ATOM     30  H   UNL     1      13.896  72.824  21.491  0.00  0.00    +0.122 HD
ATOM     31  C   UNL     1      14.870  73.674  19.844  0.00  0.00    +0.101 C 
ENDBRANCH  28  29
BRANCH  14  15
ATOM     15  O   UNL     1      20.565  68.804  15.573  0.00  0.00    -0.507 OA
ATOM     16  H   UNL     1      21.152  69.618  15.883  0.00  0.00    +0.292 HD
ENDBRANCH  14  15
BRANCH  25  26
ATOM     26  O   UNL     1      13.245  72.214  17.559  0.00  0.00    -0.374 OA
ATOM     27  C   UNL     1      12.355  73.259  17.152  0.00  0.00    +0.194 C 
ENDBRANCH  25  26
TORSDOF 3
