REMARK  Name = 4UJB
REMARK  3 active torsions:
REMARK  status: ('A' for Active; 'I' for Inactive)
REMARK    1  A    between atoms: C_6  and  C_8
REMARK    2  A    between atoms: C_8  and  C_10
REMARK    3  A    between atoms: C_14  and  C_15
REMARK                            x       y       z     vdW  Elec       q    Type
REMARK                         _______ _______ _______ _____ _____    ______ ____
ROOT
ATOM      6  C   UNL     1     -25.639   9.517   2.579  0.00  0.00    +0.083 C 
ATOM      7  C   UNL     1     -26.509   9.180   3.748  0.00  0.00    +0.044 C 
ATOM     20  C   UNL     1     -26.511   7.813   3.733  0.00  0.00    +0.089 C 
ATOM     21  N   UNL     1     -25.099   7.353   3.161  0.00  0.00    -0.315 NA
ATOM     22  H   UNL     1     -24.588   6.978   3.851  0.00  0.00    +0.122 HD
ATOM     23  C   UNL     1     -24.498   8.417   2.692  0.00  0.00    +0.093 C 
ENDROOT
BRANCH   7   8
ATOM      8  C   UNL     1     -28.053   9.439   3.746  0.00  0.00    -0.040 A 
ATOM      9  C   UNL     1     -28.763   9.711   4.961  0.00  0.00    +0.005 A 
ATOM     10  C   UNL     1     -30.119   9.898   4.909  0.00  0.00    +0.016 A 
ATOM     11  C   UNL     1     -30.815   9.834   3.654  0.00  0.00    +0.065 A 
ATOM     12  C   UNL     1     -32.314  10.041   3.580  0.00  0.00    +0.259 C 
ATOM     13  N   UNL     1     -32.943   9.973   2.337  0.00  0.00    -0.313 N 
ATOM     14  H   UNL     1     -33.806  10.097   2.288  0.00  0.00    +0.170 HD
ATOM     15  C   UNL     1     -32.200   9.710   1.132  0.00  0.00    +0.199 C 
ATOM     16  N   UNL     1     -30.774   9.507   1.197  0.00  0.00    -0.237 NA
ATOM     17  O   UNL     1     -32.977  10.260   4.596  0.00  0.00    -0.267 OA
ATOM     18  C   UNL     1     -30.116   9.577   2.490  0.00  0.00    +0.078 A 
ATOM     19  C   UNL     1     -28.709   9.385   2.546  0.00  0.00    +0.032 A 
ENDBRANCH   7   8
BRANCH   6   5
ATOM      5  C   UNL     1     -25.170  10.969   2.757  0.00  0.00    +0.168 C 
ATOM     24  O   UNL     1     -25.476  11.632   3.778  0.00  0.00    -0.292 OA
BRANCH   5   4
ATOM      1  F   UNL     1     -23.342  10.837  -1.707  0.00  0.00    -0.205 F 
ATOM      2  C   UNL     1     -23.494  11.522  -0.612  0.00  0.00    +0.124 A 
ATOM      3  C   UNL     1     -24.218  10.919   0.474  0.00  0.00    +0.049 A 
ATOM      4  C   UNL     1     -24.388  11.622   1.627  0.00  0.00    +0.020 A 
ATOM     25  C   UNL     1     -23.872  12.905   1.750  0.00  0.00    +0.011 A 
ATOM     26  C   UNL     1     -23.169  13.488   0.689  0.00  0.00    +0.003 A 
ATOM     27  C   UNL     1     -22.988  12.742  -0.511  0.00  0.00    +0.038 A 
ENDBRANCH   5   4
ENDBRANCH   6   5
TORSDOF 3
