REMARK  Name = 2oic_ligand
REMARK  5 active torsions:
REMARK  status: ('A' for Active; 'I' for Inactive)
REMARK    1  A    between atoms: C23_4  and  N4_34
REMARK    2  A    between atoms: C22_5  and  O6_32
REMARK    3  A    between atoms: C21_6  and  C26_7
REMARK    4  A    between atoms: O6_32  and  C27_33
REMARK    5  A    between atoms: N4_34  and  C28_35
REMARK                            x       y       z     vdW  Elec       q    Type
REMARK                         _______ _______ _______ _____ _____    ______ ____
ROOT
ATOM      1  O   UNL     1     -19.206  12.595  -3.927  0.00  0.00    -0.315 OA
ATOM      2  C   UNL     1     -20.281  13.191  -3.215  0.00  0.00    +0.202 C 
ATOM      3  N   UNL     1     -20.840  12.134  -2.312  0.00  0.00    -0.229 N 
ATOM      4  C   UNL     1     -21.559  12.355  -1.111  0.00  0.00    +0.070 A 
ATOM      5  C   UNL     1     -21.598  13.506  -0.306  0.00  0.00    +0.013 A 
ATOM      6  C   UNL     1     -22.267  13.412   0.918  0.00  0.00    -0.018 A 
ATOM      7  C   UNL     1     -22.822  12.191   1.315  0.00  0.00    -0.024 A 
ATOM      8  C   UNL     1     -22.748  11.038   0.525  0.00  0.00    -0.013 A 
ATOM      9  C   UNL     1     -22.099  11.146  -0.694  0.00  0.00    -0.007 A 
ATOM     10  C   UNL     1     -21.869  10.187  -1.693  0.00  0.00    +0.001 A 
ATOM     11  C   UNL     1     -22.191   8.827  -1.813  0.00  0.00    -0.017 A 
ATOM     12  C   UNL     1     -22.939   7.954  -0.925  0.00  0.00    +0.196 C 
ATOM     13  N   UNL     1     -22.964   6.664  -1.659  0.00  0.00    -0.279 N 
ATOM     14  H   UNL     1     -23.402   5.818  -1.355  0.00  0.00    +0.186 HD
ATOM     15  C   UNL     1     -22.276   6.846  -2.831  0.00  0.00    +0.187 C 
ATOM     16  O   UNL     1     -22.142   5.878  -3.687  0.00  0.00    -0.396 OA
ATOM     17  C   UNL     1     -21.793   8.165  -2.960  0.00  0.00    +0.032 A 
ATOM     18  C   UNL     1     -21.094   8.799  -4.008  0.00  0.00    -0.002 A 
ATOM     19  C   UNL     1     -20.586   8.392  -5.243  0.00  0.00    -0.007 A 
ATOM     20  C   UNL     1     -20.650   7.150  -5.857  0.00  0.00    -0.011 A 
ATOM     21  C   UNL     1     -20.038   7.021  -7.106  0.00  0.00    -0.023 A 
ATOM     22  C   UNL     1     -19.401   8.114  -7.728  0.00  0.00    -0.016 A 
ATOM     23  C   UNL     1     -19.362   9.366  -7.094  0.00  0.00    +0.014 A 
ATOM     24  C   UNL     1     -19.924   9.475  -5.823  0.00  0.00    +0.068 A 
ATOM     25  N   UNL     1     -20.142  10.636  -5.038  0.00  0.00    -0.238 N 
ATOM     26  C   UNL     1     -20.742  10.137  -3.851  0.00  0.00    +0.095 A 
ATOM     27  C   UNL     1     -21.180  10.827  -2.725  0.00  0.00    +0.098 A 
ATOM     28  C   UNL     1     -19.673  14.344  -2.403  0.00  0.00    +0.079 C 
ATOM     29  C   UNL     1     -21.471  13.681  -4.107  0.00  0.00    +0.227 C 
ATOM     32  C   UNL     1     -21.259  13.852  -5.608  0.00  0.00    +0.102 C 
ATOM     37  C   UNL     1     -20.147  12.962  -6.170  0.00  0.00    +0.120 C 
ATOM     38  C   UNL     1     -19.484  11.969  -5.196  0.00  0.00    +0.260 C 
ENDROOT
BRANCH  32  33
ATOM     33  N   UNL     1     -21.235  15.249  -6.043  0.00  0.00    +0.229 N 
ATOM     34  H   UNL     1     -20.270  15.538  -6.006  0.00  0.00    +0.201 HD
ATOM     35  H   UNL     1     -21.550  15.251  -7.000  0.00  0.00    +0.201 HD
ATOM     36  C   UNL     1     -22.006  16.302  -5.355  0.00  0.00    +0.189 C 
ENDBRANCH  32  33
BRANCH  29  30
ATOM     30  O   UNL     1     -22.561  12.740  -4.192  0.00  0.00    -0.369 OA
ATOM     31  C   UNL     1     -23.778  13.196  -3.634  0.00  0.00    +0.195 C 
ENDBRANCH  29  30
TORSDOF 2
