REMARK  Name = 6NCG
REMARK  3 active torsions:
REMARK  status: ('A' for Active; 'I' for Inactive)
REMARK    1  A    between atoms: C4_1  and  C7_6
REMARK    2  A    between atoms: C6_4  and  C1_16
REMARK    3  A    between atoms: C15_18  and  S1_24
REMARK                            x       y       z     vdW  Elec       q    Type
REMARK                         _______ _______ _______ _____ _____    ______ ____
ROOT
ATOM      1  C   UNL     1      17.928   3.299  -1.743  0.00  0.00    +0.000 A 
ATOM      2  C   UNL     1      17.938   2.096  -1.053  0.00  0.00    +0.250 A 
ATOM      3  N   UNL     1      16.847   1.401  -0.712  0.00  0.00    -0.760 NA
ATOM      4  C   UNL     1      15.648   1.882  -1.091  0.00  0.00    +0.430 A 
ATOM      5  C   UNL     1      15.530   3.105  -1.799  0.00  0.00    +0.000 A 
ATOM     15  N   UNL     1      14.584   1.171  -0.728  0.00  0.00    -0.550 NA
ATOM     26  C   UNL     1      16.691   3.792  -2.138  0.00  0.00    -0.130 A 
ENDROOT
BRANCH   5   6
ATOM      6  C   UNL     1      14.204   3.620  -2.227  0.00  0.00    +0.000 A 
ATOM      7  C   UNL     1      13.850   4.944  -2.006  0.00  0.00    -0.130 A 
ATOM      8  C   UNL     1      12.615   5.400  -2.399  0.00  0.00    +0.300 A 
ATOM      9  F   UNL     1      12.286   6.708  -2.177  0.00  0.00    -0.300 F 
ATOM     10  C   UNL     1      11.696   4.568  -3.013  0.00  0.00    +0.250 A 
ATOM     11  O   UNL     1      10.487   5.018  -3.396  0.00  0.00    -0.650 OA
ATOM     12  C   UNL     1      12.059   3.253  -3.221  0.00  0.00    +0.300 A 
ATOM     13  F   UNL     1      11.171   2.407  -3.820  0.00  0.00    -0.300 F 
ATOM     14  C   UNL     1      13.283   2.771  -2.828  0.00  0.00    -0.130 A 
ENDBRANCH   5   6
BRANCH   1  16
ATOM     16  C   UNL     1      19.180   3.997  -2.117  0.00  0.00    +0.000 A 
ATOM     17  C   UNL     1      19.206   5.367  -2.373  0.00  0.00    -0.130 A 
ATOM     18  C   UNL     1      20.378   6.008  -2.735  0.00  0.00    -0.130 A 
ATOM     19  C   UNL     1      21.550   5.282  -2.845  0.00  0.00    +0.060 A 
ATOM     24  C   UNL     1      21.549   3.920  -2.608  0.00  0.00    -0.130 A 
ATOM     25  C   UNL     1      20.374   3.291  -2.243  0.00  0.00    -0.130 A 
BRANCH  19  20
ATOM     20  S   UNL     1      23.052   6.082  -3.317  0.00  0.00    +1.360 S 
ATOM     21  O   UNL     1      23.805   6.338  -2.128  0.00  0.00    -0.650 OA
ATOM     22  O   UNL     1      23.641   5.288  -4.352  0.00  0.00    -0.650 OA
ATOM     23  N   UNL     1      22.691   7.500  -3.965  0.00  0.00    -0.820 NA
ENDBRANCH  19  20
ENDBRANCH   1  16
TORSDOF 3
