REMARK  Name = 5CAV
REMARK  9 active torsions:
REMARK  status: ('A' for Active; 'I' for Inactive)
REMARK    1  A    between atoms: C_1  and  C_7
REMARK    2  A    between atoms: C_7  and  C_8
REMARK    3  A    between atoms: C_7  and  N_14
REMARK    4  A    between atoms: C_9  and  C_11
REMARK    5  A    between atoms: C_10  and  C_11
REMARK    6  A    between atoms: C_11  and  O_34
REMARK    7  A    between atoms: N_18  and  C_19
REMARK    8  A    between atoms: C_28  and  O_32
REMARK    9  A    between atoms: O_32  and  C_33
REMARK                            x       y       z     vdW  Elec       q    Type
REMARK                         _______ _______ _______ _____ _____    ______ ____
ROOT
ATOM      6  N   UNL     1     -51.606  -0.771 -19.951  0.00  0.00    -0.314 N 
ATOM      7  C   UNL     1     -51.415  -0.372 -18.644  0.00  0.00    +0.140 A 
ATOM      8  N   UNL     1     -52.206   0.624 -18.358  0.00  0.00    -0.228 NA
ATOM      9  C   UNL     1     -52.923   0.973 -19.447  0.00  0.00    +0.108 A 
ATOM     10  C   UNL     1     -53.865   1.977 -19.683  0.00  0.00    +0.142 A 
ATOM     11  N   UNL     1     -54.432   2.092 -20.868  0.00  0.00    -0.238 NA
ATOM     12  C   UNL     1     -54.144   1.290 -21.890  0.00  0.00    +0.126 A 
ATOM     13  N   UNL     1     -54.820   1.594 -23.079  0.00  0.00    -0.284 N 
ATOM     14  H   UNL     1     -55.301   2.550 -23.105  0.00  0.00    +0.155 HD
ATOM     30  C   UNL     1     -53.190   0.271 -21.743  0.00  0.00    +0.071 A 
ATOM     35  C   UNL     1     -52.558   0.091 -20.499  0.00  0.00    +0.074 A 
ENDROOT
BRANCH  13  15
ATOM     15  C   UNL     1     -54.952   0.826 -24.228  0.00  0.00    +0.129 A 
ATOM     16  N   UNL     1     -53.986   0.003 -24.646  0.00  0.00    -0.199 NA
ATOM     17  C   UNL     1     -54.142  -0.765 -25.727  0.00  0.00    +0.220 A 
ATOM     18  N   UNL     1     -53.105  -1.617 -26.106  0.00  0.00    -0.297 N 
ATOM     19  C   UNL     1     -53.291  -2.494 -27.276  0.00  0.00    +0.147 C 
ATOM     20  C   UNL     1     -51.923  -2.524 -27.954  0.00  0.00    +0.212 C 
ATOM     21  F   UNL     1     -51.642  -1.206 -28.333  0.00  0.00    -0.241 F 
ATOM     22  C   UNL     1     -50.848  -3.061 -26.975  0.00  0.00    +0.155 C 
ATOM     25  C   UNL     1     -50.837  -2.307 -25.624  0.00  0.00    +0.053 C 
ATOM     26  C   UNL     1     -52.262  -2.218 -25.055  0.00  0.00    +0.110 C 
ATOM     27  N   UNL     1     -55.247  -0.660 -26.473  0.00  0.00    -0.223 NA
ATOM     28  C   UNL     1     -56.247   0.151 -26.129  0.00  0.00    +0.118 A 
ATOM     29  C   UNL     1     -56.127   0.937 -24.991  0.00  0.00    +0.063 A 
BRANCH  22  23
ATOM     23  O   UNL     1     -49.547  -2.942 -27.576  0.00  0.00    -0.377 OA
ATOM     24  C   UNL     1     -48.730  -4.119 -27.616  0.00  0.00    +0.194 C 
ENDBRANCH  22  23
ENDBRANCH  13  15
BRANCH   6   5
ATOM      5  C   UNL     1     -50.873  -1.890 -20.600  0.00  0.00    +0.190 C 
ATOM     36  C   UNL     1     -51.782  -2.880 -21.339  0.00  0.00    +0.040 C 
BRANCH   5   1
ATOM      1  C   UNL     1     -49.764  -1.382 -21.529  0.00  0.00    +0.410 C 
ATOM      2  F   UNL     1     -50.306  -0.857 -22.708  0.00  0.00    -0.168 F 
ATOM      3  F   UNL     1     -48.913  -2.455 -21.822  0.00  0.00    -0.168 F 
ATOM      4  F   UNL     1     -49.011  -0.392 -20.891  0.00  0.00    -0.168 F 
ENDBRANCH   5   1
ENDBRANCH   6   5
BRANCH   7  31
ATOM     31  C   UNL     1     -50.468  -1.009 -17.641  0.00  0.00    +0.177 C 
ATOM     34  C   UNL     1     -50.043  -0.017 -16.554  0.00  0.00    +0.046 C 
BRANCH  31  32
ATOM     32  O   UNL     1     -51.115  -2.134 -17.039  0.00  0.00    -0.384 OA
ATOM     33  H   UNL     1     -51.987  -1.816 -16.549  0.00  0.00    +0.210 HD
ENDBRANCH  31  32
ENDBRANCH   7  31
TORSDOF 6
