REMARK  Name = 3w2p_ligand
REMARK  13 active torsions:
REMARK  status: ('A' for Active; 'I' for Inactive)
REMARK    1  A    between atoms: C1_1  and  N34_34
REMARK    2  A    between atoms: C4_4  and  O7_7
REMARK    3  A    between atoms: O7_7  and  C8_8
REMARK    4  A    between atoms: C13_13  and  C15_15
REMARK    5  A    between atoms: N25_25  and  C28_28
REMARK    6  A    between atoms: C28_28  and  C29_29
REMARK    7  A    between atoms: C29_29  and  N30_30
REMARK    8  A    between atoms: C31_31  and  C32_32
REMARK    9  A    between atoms: C32_32  and  C35_35
REMARK   10  A    between atoms: C35_35  and  C36_36
REMARK   11  A    between atoms: C36_36  and  N37_37
REMARK   12  A    between atoms: N37_37  and  C38_38
REMARK   13  A    between atoms: N37_37  and  C39_39
REMARK                            x       y       z     vdW  Elec       q    Type
REMARK                         _______ _______ _______ _____ _____    ______ ____
ROOT
ATOM      2  N   UNL     1     146.519  23.339  50.201  0.00  0.00    -0.260 N 
ATOM      3  H   UNL     1     146.197  22.859  49.348  0.00  0.00    +0.214 HD
ATOM      4  C   UNL     1     146.923  22.550  51.291  0.00  0.00    +0.168 A 
ATOM      5  C   UNL     1     147.029  21.174  51.209  0.00  0.00    +0.140 A 
ATOM      6  N   UNL     1     146.825  20.278  50.185  0.00  0.00    -0.252 N 
ATOM     20  C   UNL     1     147.087  18.996  50.602  0.00  0.00    +0.136 A 
ATOM     21  C   UNL     1     147.478  19.053  51.921  0.00  0.00    -0.013 A 
ATOM     22  C   UNL     1     147.452  20.426  52.293  0.00  0.00    +0.038 A 
ATOM     23  N   UNL     1     147.761  20.981  53.479  0.00  0.00    -0.313 NA
ATOM     24  C   UNL     1     147.618  22.304  53.481  0.00  0.00    +0.141 A 
ATOM     25  N   UNL     1     147.230  23.094  52.479  0.00  0.00    -0.270 NA
ENDROOT
BRANCH   2   1
ATOM      1  C   UNL     1     146.529  24.750  50.206  0.00  0.00    +0.055 A 
ATOM     26  C   UNL     1     145.453  25.596  50.033  0.00  0.00    +0.007 A 
ATOM     27  C   UNL     1     145.667  26.973  50.039  0.00  0.00    +0.016 A 
ATOM     28  C   UNL     1     146.942  27.494  50.215  0.00  0.00    +0.120 A 
ATOM     40  C   UNL     1     148.004  26.642  50.392  0.00  0.00    +0.064 A 
ATOM     41 CL   UNL     1     149.595  27.270  50.637  0.00  0.00    -0.080 Cl
ATOM     42  C   UNL     1     147.790  25.283  50.375  0.00  0.00    +0.021 A 
BRANCH  28  29
ATOM     29  O   UNL     1     147.281  28.844  50.258  0.00  0.00    -0.257 OA
BRANCH  29  30
ATOM     30  C   UNL     1     146.357  29.814  49.890  0.00  0.00    +0.142 A 
ATOM     31  C   UNL     1     145.773  29.791  48.647  0.00  0.00    +0.077 A 
ATOM     32  C   UNL     1     144.873  30.773  48.300  0.00  0.00    +0.039 A 
ATOM     37  C   UNL     1     144.574  31.781  49.195  0.00  0.00    +0.036 A 
ATOM     38  C   UNL     1     145.170  31.804  50.436  0.00  0.00    +0.029 A 
ATOM     39  C   UNL     1     146.068  30.819  50.780  0.00  0.00    +0.081 A 
BRANCH  32  33
ATOM     33  C   UNL     1     144.240  30.736  46.943  0.00  0.00    +0.374 C 
ATOM     34  F   UNL     1     143.105  31.493  46.877  0.00  0.00    -0.221 F 
ATOM     35  F   UNL     1     145.085  31.222  45.992  0.00  0.00    -0.221 F 
ATOM     36  F   UNL     1     143.902  29.477  46.512  0.00  0.00    -0.221 F 
ENDBRANCH  32  33
ENDBRANCH  29  30
ENDBRANCH  28  29
ENDBRANCH   2   1
BRANCH   6   7
ATOM      7  C   UNL     1     146.409  20.623  48.821  0.00  0.00    +0.200 C 
BRANCH   7   8
ATOM      8  C   UNL     1     145.217  19.855  48.306  0.00  0.00    +0.167 C 
BRANCH   8   9
ATOM      9  N   UNL     1     144.087  20.348  49.024  0.00  0.00    -0.284 N 
ATOM     10  H   UNL     1     143.763  21.283  48.879  0.00  0.00    +0.185 HD
ATOM     11  C   UNL     1     143.455  19.526  49.911  0.00  0.00    +0.176 C 
ATOM     12  O   UNL     1     143.745  18.354  50.145  0.00  0.00    -0.397 OA
BRANCH  11  13
ATOM     13  C   UNL     1     142.315  20.254  50.547  0.00  0.00    +0.143 C 
BRANCH  13  14
ATOM     14  C   UNL     1     141.047  19.580  50.064  0.00  0.00    +0.073 C 
BRANCH  14  15
ATOM     15  C   UNL     1     140.430  20.294  48.881  0.00  0.00    +0.133 C 
BRANCH  15  16
ATOM     16  N   UNL     1     139.155  19.657  48.567  0.00  0.00    +0.231 N 
ATOM     17  H   UNL     1     139.043  18.796  49.079  0.00  0.00    +0.203 HD
ATOM     18  C   UNL     1     139.145  19.421  47.129  0.00  0.00    +0.190 C 
ATOM     19  C   UNL     1     138.075  20.594  48.880  0.00  0.00    +0.190 C 
ENDBRANCH  15  16
ENDBRANCH  14  15
ENDBRANCH  13  14
ENDBRANCH  11  13
ENDBRANCH   8   9
ENDBRANCH   7   8
ENDBRANCH   6   7
TORSDOF 11
