REMARK  Name = 4bky_ligand
REMARK  6 active torsions:
REMARK  status: ('A' for Active; 'I' for Inactive)
REMARK    1  A    between atoms: N21_3  and  C24_4
REMARK    2  A    between atoms: C24_4  and  C25_5
REMARK    3  A    between atoms: C24_4  and  C23_11
REMARK    4  A    between atoms: C23_11  and  N31_12
REMARK    5  A    between atoms: C10_28  and  C11_30
REMARK    6  A    between atoms: N16_31  and  C32_32
REMARK                            x       y       z     vdW  Elec       q    Type
REMARK                         _______ _______ _______ _____ _____    ______ ____
ROOT
ATOM      1  O   UNL     1      15.547   9.650   8.821  0.00  0.00    -0.401 OA
ATOM      2  C   UNL     1      15.057   9.876   7.720  0.00  0.00    +0.253 C 
ATOM      3  N   UNL     1      15.360   9.187   6.612  0.00  0.00    -0.286 N 
ATOM      4  C   UNL     1      14.825   9.531   5.256  0.00  0.00    +0.221 C 
ATOM      5  C   UNL     1      15.292   8.372   4.412  0.00  0.00    +0.071 A 
ATOM      6  C   UNL     1      15.346   7.773   3.163  0.00  0.00    +0.190 A 
ATOM      7  N   UNL     1      14.731   8.166   1.998  0.00  0.00    -0.223 N 
ATOM      8  H   UNL     1      14.905   7.632   1.171  0.00  0.00    +0.220 HD
ATOM      9  C   UNL     1      13.917   9.216   1.906  0.00  0.00    +0.240 C 
ATOM     17  O   UNL     1      13.686   9.957   2.843  0.00  0.00    -0.383 OA
ATOM     18  N   UNL     1      16.041   6.603   3.203  0.00  0.00    -0.150 NA
ATOM     19  N   UNL     1      16.506   6.427   4.529  0.00  0.00    -0.214 N 
ATOM     20  H   UNL     1      17.037   5.628   4.905  0.00  0.00    +0.251 HD
ATOM     21  C   UNL     1      16.106   7.524   5.191  0.00  0.00    +0.070 A 
ATOM     22  C   UNL     1      16.077   7.893   6.613  0.00  0.00    +0.047 C 
ATOM     23  C   UNL     1      16.683   6.860   7.627  0.00  0.00    -0.049 C 
ATOM     24  C   UNL     1      17.500   8.058   7.176  0.00  0.00    -0.049 C 
ATOM     25  N   UNL     1      14.139  10.832   7.576  0.00  0.00    -0.254 N 
ATOM     26  H   UNL     1      13.841  11.076   6.653  0.00  0.00    +0.188 HD
ENDROOT
BRANCH   9  10
ATOM     10  C   UNL     1      13.303   9.527   0.587  0.00  0.00    +0.133 A 
ATOM     11  C   UNL     1      13.597   8.848  -0.590  0.00  0.00    -0.013 A 
ATOM     12  C   UNL     1      12.790   9.511  -1.473  0.00  0.00    +0.000 A 
ATOM     13 BR   UNL     1      12.711   9.062  -3.396  0.00  0.00    -0.082 Br
ATOM     14  C   UNL     1      12.040  10.515  -0.941  0.00  0.00    +0.130 A 
ATOM     15  N   UNL     1      12.382  10.500   0.353  0.00  0.00    -0.264 N 
ATOM     16  C   UNL     1      11.801  11.442   1.343  0.00  0.00    +0.221 C 
ENDBRANCH   9  10
BRANCH  25  27
ATOM     27  C   UNL     1      13.553  11.535   8.705  0.00  0.00    +0.193 C 
BRANCH  27  35
ATOM     35  C   UNL     1      14.429  12.665   9.102  0.00  0.00    -0.013 A 
ATOM     36  C   UNL     1      14.877  12.754  10.423  0.00  0.00    -0.002 A 
ATOM     37  C   UNL     1      15.683  13.820  10.821  0.00  0.00    -0.009 A 
ATOM     38  C   UNL     1      16.026  14.811   9.897  0.00  0.00    -0.013 A 
ATOM     39  C   UNL     1      15.567  14.727   8.581  0.00  0.00    -0.009 A 
ATOM     40  C   UNL     1      14.771  13.659   8.175  0.00  0.00    -0.002 A 
ENDBRANCH  27  35
BRANCH  27  28
ATOM     28  C   UNL     1      12.183  12.028   8.235  0.00  0.00    +0.173 C 
BRANCH  28  29
ATOM     29  N   UNL     1      11.377  12.745   9.231  0.00  0.00    +0.238 N 
ATOM     30  H   UNL     1      11.837  12.261   9.986  0.00  0.00    +0.204 HD
ATOM     31  C   UNL     1      11.731  14.052   9.789  0.00  0.00    +0.131 C 
ATOM     32  C   UNL     1      10.360  14.602  10.169  0.00  0.00    +0.056 C 
ATOM     33  C   UNL     1       9.407  13.409  10.279  0.00  0.00    +0.056 C 
ATOM     34  C   UNL     1      10.069  12.220   9.592  0.00  0.00    +0.131 C 
ENDBRANCH  28  29
ENDBRANCH  27  28
ENDBRANCH  25  27
TORSDOF 5
