REMARK  Name = 5GJF
REMARK  11 active torsions:
REMARK  status: ('A' for Active; 'I' for Inactive)
REMARK    1  A    between atoms: C_1  and  C_7
REMARK    2  A    between atoms: C_3  and  O_13
REMARK    3  A    between atoms: C_4  and  N_14
REMARK    4  A    between atoms: O_13  and  C_26
REMARK    5  A    between atoms: N_15  and  C_17
REMARK    6  A    between atoms: C_18  and  C_19
REMARK    7  A    between atoms: C_23  and  C_25
REMARK    8  A    between atoms: C_26  and  C_27
REMARK    9  A    between atoms: C_26  and  C_28
REMARK   10  A    between atoms: C_32  and  N_34
REMARK   11  A    between atoms: N_36  and  C_38
REMARK                            x       y       z     vdW  Elec       q    Type
REMARK                         _______ _______ _______ _____ _____    ______ ____
ROOT
ATOM     14  N   UNL     1     -13.193 -49.786 -16.840  0.00  0.00    -0.277 N 
ATOM     15  H   UNL     1     -12.494 -50.594 -16.900  0.00  0.00    +0.155 HD
ATOM     16  C   UNL     1     -12.806 -48.746 -16.031  0.00  0.00    +0.267 C 
ATOM     17  O   UNL     1     -13.527 -47.803 -15.706  0.00  0.00    -0.268 OA
ENDROOT
BRANCH  14  13
ATOM      1  C   UNL     1     -16.650 -50.384 -19.206  0.00  0.00    +0.041 A 
ATOM     11  C   UNL     1     -16.746 -49.700 -17.992  0.00  0.00    +0.015 A 
ATOM     12  C   UNL     1     -15.627 -49.495 -17.202  0.00  0.00    +0.028 A 
ATOM     13  C   UNL     1     -14.377 -49.960 -17.611  0.00  0.00    +0.076 A 
ATOM     41  C   UNL     1     -14.282 -50.671 -18.839  0.00  0.00    +0.143 A 
ATOM     46  C   UNL     1     -15.406 -50.854 -19.629  0.00  0.00    +0.060 A 
BRANCH   1   2
ATOM      2  C   UNL     1     -17.843 -50.606 -20.092  0.00  0.00    +0.247 C 
ATOM      3  N   UNL     1     -19.075 -50.350 -19.605  0.00  0.00    -0.295 N 
ATOM      4  C   UNL     1     -19.595 -48.983 -19.752  0.00  0.00    +0.123 C 
ATOM      5  C   UNL     1     -20.768 -48.755 -18.812  0.00  0.00    +0.103 C 
ATOM      6  N   UNL     1     -21.824 -49.735 -19.048  0.00  0.00    -0.302 NA
ATOM      7  C   UNL     1     -22.973 -49.481 -18.169  0.00  0.00    +0.105 C 
ATOM      8  C   UNL     1     -21.293 -51.079 -18.834  0.00  0.00    +0.103 C 
ATOM      9  C   UNL     1     -20.129 -51.361 -19.774  0.00  0.00    +0.123 C 
ATOM     10  O   UNL     1     -17.675 -50.971 -21.243  0.00  0.00    -0.270 OA
ENDBRANCH   1   2
BRANCH  41  42
ATOM     42  O   UNL     1     -13.029 -51.093 -19.230  0.00  0.00    -0.487 OA
BRANCH  42  43
ATOM     43  C   UNL     1     -12.499 -52.412 -18.863  0.00  0.00    +0.167 C 
ATOM     44  C   UNL     1     -10.986 -52.299 -19.002  0.00  0.00    +0.051 C 
ATOM     45  C   UNL     1     -13.090 -53.513 -19.703  0.00  0.00    +0.051 C 
ENDBRANCH  42  43
ENDBRANCH  41  42
ENDBRANCH  14  13
BRANCH  16  18
ATOM     18  C   UNL     1     -11.409 -48.847 -15.538  0.00  0.00    +0.134 A 
ATOM     19  N   UNL     1     -10.676 -50.008 -15.729  0.00  0.00    -0.234 NA
ATOM     20  C   UNL     1      -9.473 -49.878 -15.227  0.00  0.00    +0.109 A 
ATOM     39  S   UNL     1      -9.170 -48.349 -14.474  0.00  0.00    -0.075 S 
ATOM     40  C   UNL     1     -10.765 -47.851 -14.885  0.00  0.00    +0.080 A 
BRANCH  20  21
ATOM     21  C   UNL     1      -8.440 -50.930 -15.240  0.00  0.00    +0.009 A 
ATOM     22  C   UNL     1      -7.089 -50.612 -15.105  0.00  0.00    +0.034 A 
ATOM     23  C   UNL     1      -6.120 -51.614 -15.112  0.00  0.00    +0.035 A 
ATOM     36  C   UNL     1      -6.505 -52.942 -15.244  0.00  0.00    +0.023 A 
ATOM     37  C   UNL     1      -7.847 -53.261 -15.374  0.00  0.00    +0.002 A 
ATOM     38  C   UNL     1      -8.809 -52.264 -15.374  0.00  0.00    +0.010 A 
BRANCH  23  24
ATOM     24  N   UNL     1      -4.738 -51.348 -14.960  0.00  0.00    -0.269 N 
ATOM     25  H   UNL     1      -4.195 -52.019 -14.328  0.00  0.00    +0.156 HD
ATOM     26  C   UNL     1      -4.012 -50.332 -15.527  0.00  0.00    +0.308 C 
ATOM     27  O   UNL     1      -4.525 -49.331 -16.016  0.00  0.00    -0.252 OA
ATOM     28  N   UNL     1      -2.656 -50.560 -15.489  0.00  0.00    -0.269 N 
ATOM     29  H   UNL     1      -2.349 -51.471 -15.019  0.00  0.00    +0.156 HD
BRANCH  28  30
ATOM     30  C   UNL     1      -1.610 -49.742 -15.994  0.00  0.00    +0.035 A 
ATOM     31  C   UNL     1      -0.305 -50.108 -15.674  0.00  0.00    +0.023 A 
ATOM     32  C   UNL     1       0.762 -49.351 -16.136  0.00  0.00    +0.002 A 
ATOM     33  C   UNL     1       0.541 -48.234 -16.919  0.00  0.00    +0.000 A 
ATOM     34  C   UNL     1      -0.750 -47.865 -17.240  0.00  0.00    +0.002 A 
ATOM     35  C   UNL     1      -1.826 -48.611 -16.784  0.00  0.00    +0.023 A 
ENDBRANCH  28  30
ENDBRANCH  23  24
ENDBRANCH  20  21
ENDBRANCH  16  18
TORSDOF 8
