REMARK  Name = 5G2N
REMARK  9 active torsions:
REMARK  status: ('A' for Active; 'I' for Inactive)
REMARK    1  A    between atoms: N_6  and  C_7
REMARK    2  A    between atoms: C_7  and  C_8
REMARK    3  A    between atoms: C_8  and  C_9
REMARK    4  A    between atoms: C_9  and  O_10
REMARK    5  A    between atoms: O_10  and  C_11
REMARK    6  A    between atoms: C_12  and  O_15
REMARK    7  A    between atoms: O_15  and  C_16
REMARK    8  A    between atoms: C_25  and  N_26
REMARK    9  A    between atoms: C_27  and  C_29
REMARK                            x       y       z     vdW  Elec       q    Type
REMARK                         _______ _______ _______ _____ _____    ______ ____
ROOT
ATOM      7  C   UNL     1      49.334  14.828  31.387  0.00  0.00    +0.164 C 
ATOM      8  C   UNL     1      49.926  14.013  30.460  0.00  0.00    +0.050 C 
ATOM      9  C   UNL     1      49.184  13.002  29.854  0.00  0.00    +0.017 C 
ATOM     10  C   UNL     1      47.856  12.789  30.164  0.00  0.00    +0.046 C 
ATOM     11  C   UNL     1      47.109  11.786  29.548  0.00  0.00    +0.141 C 
ATOM     12  N   UNL     1      45.773  11.609  29.857  0.00  0.00    -0.296 N 
ATOM     13  C   UNL     1      45.190  12.417  30.790  0.00  0.00    +0.204 C 
ATOM     27  N   UNL     1      45.940  13.398  31.388  0.00  0.00    -0.212 NA
ATOM     28  C   UNL     1      45.241  10.506  29.122  0.00  0.00    +0.149 C 
ATOM     29  C   UNL     1      46.482   9.832  28.660  0.00  0.00    +0.165 C 
ATOM     30  N   UNL     1      47.431  10.926  28.636  0.00  0.00    -0.265 NA
ATOM     31  C   UNL     1      47.239  13.589  31.113  0.00  0.00    +0.123 C 
ATOM     32  C   UNL     1      47.980  14.591  31.711  0.00  0.00    +0.188 C 
ENDROOT
BRANCH  13  14
ATOM     14  N   UNL     1      43.890  12.141  31.068  0.00  0.00    -0.252 N 
ATOM     15  H   UNL     1      43.370  11.448  30.440  0.00  0.00    +0.158 HD
ATOM     16  C   UNL     1      43.233  12.692  32.084  0.00  0.00    +0.253 C 
ATOM     26  O   UNL     1      43.749  13.472  32.884  0.00  0.00    -0.270 OA
BRANCH  16  17
ATOM     17  C   UNL     1      41.824  12.169  32.335  0.00  0.00    +0.073 A 
ATOM     18  C   UNL     1      41.248  11.257  31.478  0.00  0.00    +0.129 A 
ATOM     19  N   UNL     1      40.044  10.815  31.709  0.00  0.00    -0.222 NA
ATOM     20  C   UNL     1      39.378  11.215  32.820  0.00  0.00    +0.212 A 
ATOM     21  N   UNL     1      38.172  10.722  33.032  0.00  0.00    -0.328 N 
ATOM     22  H   UNL     1      37.743  10.037  32.331  0.00  0.00    +0.145 HD
ATOM     23  H   UNL     1      37.623  11.008  33.905  0.00  0.00    +0.145 HD
ATOM     24  N   UNL     1      39.910  12.077  33.708  0.00  0.00    -0.222 NA
ATOM     25  C   UNL     1      41.120  12.557  33.483  0.00  0.00    +0.129 A 
ENDBRANCH  16  17
ENDBRANCH  13  14
BRANCH  32  33
ATOM     33  O   UNL     1      47.348  15.357  32.613  0.00  0.00    -0.489 OA
ATOM     34  C   UNL     1      46.678  16.465  32.003  0.00  0.00    +0.277 C 
ENDBRANCH  32  33
BRANCH   7   6
ATOM      6  O   UNL     1      50.006  15.851  31.995  0.00  0.00    -0.488 OA
BRANCH   6   5
ATOM      5  C   UNL     1      51.368  16.099  32.042  0.00  0.00    +0.230 C 
BRANCH   5   4
ATOM      4  C   UNL     1      51.537  17.009  33.286  0.00  0.00    +0.056 C 
BRANCH   4   3
ATOM      3  C   UNL     1      52.157  16.269  34.515  0.00  0.00    +0.088 C 
BRANCH   3   2
ATOM      1  C   UNL     1      54.671  16.265  34.189  0.00  0.00    +0.112 C 
ATOM      2  N   UNL     1      53.483  16.854  34.934  0.00  0.00    -0.298 NA
ATOM     35  C   UNL     1      53.672  16.993  36.425  0.00  0.00    +0.112 C 
ATOM     36  C   UNL     1      54.444  15.837  37.077  0.00  0.00    +0.175 C 
ATOM     37  O   UNL     1      55.781  15.913  36.531  0.00  0.00    -0.377 OA
ATOM     38  C   UNL     1      55.816  15.652  35.070  0.00  0.00    +0.175 C 
ENDBRANCH   3   2
ENDBRANCH   4   3
ENDBRANCH   5   4
ENDBRANCH   6   5
ENDBRANCH   7   6
TORSDOF 8
