REMARK  Name = 2o3p_ligand
REMARK  5 active torsions:
REMARK  status: ('A' for Active; 'I' for Inactive)
REMARK    1  A    between atoms: C6_6  and  O29_21
REMARK    2  A    between atoms: C10_8  and  O27_20
REMARK    3  A    between atoms: C11_9  and  C14_10
REMARK    4  A    between atoms: C17_13  and  O24_19
REMARK    5  A    between atoms: C18_14  and  O23_18
REMARK                            x       y       z     vdW  Elec       q    Type
REMARK                         _______ _______ _______ _____ _____    ______ ____
ROOT
ATOM      1  C   UNL     1      74.079  40.468   1.927  0.00  0.00    +0.011 C 
ATOM      2  C   UNL     1      74.523  39.447   2.767  0.00  0.00    +0.114 C 
ATOM      5  C   UNL     1      74.815  38.165   2.300  0.00  0.00    +0.278 C 
ATOM      6  C   UNL     1      74.661  37.849   0.956  0.00  0.00    +0.168 A 
ATOM      7  O   UNL     1      74.946  36.595   0.505  0.00  0.00    -0.225 OA
ATOM      8  C   UNL     1      74.808  36.210  -0.882  0.00  0.00    +0.168 A 
ATOM     19  C   UNL     1      74.364  37.106  -1.777  0.00  0.00    +0.161 A 
ATOM     22  C   UNL     1      74.032  38.481  -1.397  0.00  0.00    +0.133 A 
ATOM     23  O   UNL     1      73.650  39.245  -2.252  0.00  0.00    -0.433 OA
ATOM     24  C   UNL     1      74.182  38.891   0.024  0.00  0.00    +0.087 A 
ATOM     25  C   UNL     1      73.895  40.241   0.569  0.00  0.00    +0.076 C 
ATOM     26  O   UNL     1      73.463  41.230  -0.187  0.00  0.00    -0.445 OA
ENDROOT
BRANCH   8   9
ATOM      9  C   UNL     1      75.156  34.763  -1.168  0.00  0.00    -0.003 A 
ATOM     10  C   UNL     1      75.533  33.984  -0.055  0.00  0.00    +0.016 A 
ATOM     11  C   UNL     1      75.856  32.642  -0.205  0.00  0.00    +0.116 A 
ATOM     14  C   UNL     1      75.789  32.033  -1.534  0.00  0.00    +0.116 A 
ATOM     17  C   UNL     1      75.418  32.831  -2.619  0.00  0.00    +0.010 A 
ATOM     18  C   UNL     1      75.099  34.180  -2.440  0.00  0.00    -0.023 A 
BRANCH  11  12
ATOM     12  O   UNL     1      76.226  31.870   0.801  0.00  0.00    -0.337 OA
ATOM     13  H   UNL     1      76.399  30.993   0.479  0.00  0.00    +0.244 HD
ENDBRANCH  11  12
BRANCH  14  15
ATOM     15  O   UNL     1      76.117  30.743  -1.646  0.00  0.00    -0.336 OA
ATOM     16  H   UNL     1      76.032  30.473  -2.553  0.00  0.00    +0.245 HD
ENDBRANCH  14  15
ENDBRANCH   8   9
BRANCH   2   3
ATOM      3  O   UNL     1      74.693  39.716   4.064  0.00  0.00    -0.309 OA
ATOM      4  H   UNL     1      74.456  40.620   4.232  0.00  0.00    +0.263 HD
ENDBRANCH   2   3
BRANCH  19  20
ATOM     20  O   UNL     1      74.211  36.810  -3.070  0.00  0.00    -0.338 OA
ATOM     21  H   UNL     1      73.889  37.575  -3.533  0.00  0.00    +0.243 HD
ENDBRANCH  19  20
TORSDOF 5
