REMARK  Name = 4FKW
REMARK  10 active torsions:
REMARK  status: ('A' for Active; 'I' for Inactive)
REMARK    1  A    between atoms: N_1  and  N_3
REMARK    2  A    between atoms: S_2  and  N_4
REMARK    3  A    between atoms: S_2  and  C_24
REMARK    4  A    between atoms: N_3  and  C_22
REMARK    5  A    between atoms: C_6  and  C_29
REMARK    6  A    between atoms: C_7  and  C_29
REMARK    7  A    between atoms: C_19  and  O_20
REMARK    8  A    between atoms: C_19  and  C_29
REMARK    9  A    between atoms: O_20  and  C_21
REMARK   10  A    between atoms: C_21  and  C_23
REMARK                            x       y       z     vdW  Elec       q    Type
REMARK                         _______ _______ _______ _____ _____    ______ ____
ROOT
ATOM      1  N   UNL     1     -11.935  -9.803 -11.678  0.00  0.00    -0.177 NA
ATOM      2  C   UNL     1     -12.761  -9.748 -12.744  0.00  0.00    +0.152 C 
ATOM      3  C   UNL     1     -13.875  -8.913 -12.924  0.00  0.00    +0.029 A 
ATOM      4  C   UNL     1     -14.326  -9.124 -14.229  0.00  0.00    +0.043 A 
ATOM      5  C   UNL     1     -15.481  -8.476 -14.703  0.00  0.00    +0.025 A 
ATOM      6  C   UNL     1     -16.168  -7.573 -13.879  0.00  0.00    +0.017 A 
ATOM      7  C   UNL     1     -15.736  -7.400 -12.553  0.00  0.00    +0.060 A 
ATOM     15  N   UNL     1     -13.488  -9.987 -14.845  0.00  0.00    -0.280 N 
ATOM     16  H   UNL     1     -13.548 -10.292 -15.869  0.00  0.00    +0.155 HD
ATOM     17  C   UNL     1     -14.586  -8.049 -12.073  0.00  0.00    +0.027 A 
ATOM     18  C   UNL     1     -12.569 -10.397 -13.960  0.00  0.00    +0.269 C 
ATOM     19  O   UNL     1     -11.642 -11.177 -14.200  0.00  0.00    -0.268 OA
ENDROOT
BRANCH   7   8
ATOM      8  C   UNL     1     -16.521  -6.491 -11.604  0.00  0.00    +0.339 C 
ATOM     14  O   UNL     1     -17.611  -6.023 -11.934  0.00  0.00    -0.245 OA
BRANCH   8   9
ATOM      9  O   UNL     1     -16.006  -6.321 -10.363  0.00  0.00    -0.461 OA
BRANCH   9  10
ATOM     10  C   UNL     1     -16.737  -5.496  -9.409  0.00  0.00    +0.235 C 
BRANCH  10  11
ATOM     11  C   UNL     1     -15.854  -5.433  -8.152  0.00  0.00    +0.021 C 
ATOM     12  C   UNL     1     -15.640  -6.831  -7.579  0.00  0.00    +0.010 C 
ATOM     13  C   UNL     1     -14.485  -4.784  -8.464  0.00  0.00    +0.010 C 
ENDBRANCH  10  11
ENDBRANCH   9  10
ENDBRANCH   8   9
ENDBRANCH   7   8
BRANCH   1  20
ATOM     20  N   UNL     1     -10.871 -10.472 -11.662  0.00  0.00    -0.237 N 
ATOM     21  H   UNL     1     -10.648 -11.076 -12.517  0.00  0.00    +0.174 HD
BRANCH  20  22
ATOM     22  C   UNL     1      -9.992 -10.479 -10.639  0.00  0.00    +0.048 A 
ATOM     23  C   UNL     1      -9.942  -9.400  -9.733  0.00  0.00    +0.026 A 
ATOM     24  C   UNL     1      -8.979  -9.363  -8.722  0.00  0.00    +0.030 A 
ATOM     25  C   UNL     1      -8.009 -10.366  -8.655  0.00  0.00    +0.105 A 
ATOM     26  C   UNL     1      -8.009 -11.412  -9.584  0.00  0.00    +0.030 A 
ATOM     33  C   UNL     1      -8.986 -11.437 -10.597  0.00  0.00    +0.026 A 
BRANCH  25  27
ATOM     27  S   UNL     1      -6.744 -10.285  -7.456  0.00  0.00    +0.056 S 
ATOM     28  O   UNL     1      -5.576  -9.653  -8.097  0.00  0.00    -0.153 OA
ATOM     29  O   UNL     1      -6.354 -11.655  -7.026  0.00  0.00    -0.153 OA
BRANCH  27  30
ATOM     30  N   UNL     1      -7.236  -9.405  -6.195  0.00  0.00    -0.203 NA
ATOM     31  H   UNL     1      -8.082  -9.876  -5.739  0.00  0.00    +0.144 HD
ATOM     32  H   UNL     1      -6.442  -9.329  -5.481  0.00  0.00    +0.144 HD
ENDBRANCH  27  30
ENDBRANCH  25  27
ENDBRANCH  20  22
ENDBRANCH   1  20
TORSDOF 8
