REMARK  Name = 5VUC
REMARK  5 active torsions:
REMARK  status: ('A' for Active; 'I' for Inactive)
REMARK    1  A    between atoms: C_8  and  O_9
REMARK    2  A    between atoms: O_9  and  C_10
REMARK    3  A    between atoms: C_15  and  C_16
REMARK    4  A    between atoms: C_16  and  N_17
REMARK    5  A    between atoms: C_23  and  C_24
REMARK                            x       y       z     vdW  Elec       q    Type
REMARK                         _______ _______ _______ _____ _____    ______ ____
ROOT
ATOM     10  C   UNL     1      17.802 -34.534  -3.803  0.00  0.00    +0.051 A 
ATOM     11  C   UNL     1      17.656 -34.836  -2.466  0.00  0.00    +0.147 A 
ATOM     12  O   UNL     1      18.252 -35.754  -1.629  0.00  0.00    -0.451 OA
ATOM     13  C   UNL     1      17.722 -35.680  -0.337  0.00  0.00    +0.176 C 
ATOM     14  C   UNL     1      18.089 -36.437   0.728  0.00  0.00    +0.060 C 
ATOM     24  C   UNL     1      16.665 -34.624  -0.332  0.00  0.00    +0.232 C 
ATOM     25  O   UNL     1      16.013 -34.296   0.584  0.00  0.00    -0.283 OA
ATOM     26  C   UNL     1      16.647 -34.093  -1.736  0.00  0.00    +0.068 A 
ATOM     27  C   UNL     1      15.939 -33.139  -2.399  0.00  0.00    +0.019 A 
ATOM     28  C   UNL     1      16.107 -32.824  -3.735  0.00  0.00    +0.047 A 
ATOM     29  C   UNL     1      17.079 -33.523  -4.470  0.00  0.00    +0.128 A 
ENDROOT
BRANCH  14  15
ATOM     15  C   UNL     1      19.078 -37.491   0.504  0.00  0.00    +0.006 A 
ATOM     16  C   UNL     1      19.873 -38.206  -0.462  0.00  0.00    +0.009 A 
ATOM     17  C   UNL     1      20.061 -38.150  -1.866  0.00  0.00    +0.010 A 
ATOM     18  C   UNL     1      20.936 -39.012  -2.502  0.00  0.00    +0.001 A 
ATOM     19  C   UNL     1      21.669 -39.971  -1.762  0.00  0.00    +0.002 A 
ATOM     20  C   UNL     1      21.520 -40.062  -0.388  0.00  0.00    +0.028 A 
ATOM     21  C   UNL     1      20.620 -39.181   0.268  0.00  0.00    +0.072 A 
ATOM     22  N   UNL     1      20.284 -39.062   1.635  0.00  0.00    -0.254 NA
ATOM     23  C   UNL     1      19.351 -38.046   1.776  0.00  0.00    +0.120 A 
ENDBRANCH  14  15
BRANCH  29  30
ATOM     30  O   UNL     1      17.242 -33.196  -5.813  0.00  0.00    -0.495 OA
ATOM     31  C   UNL     1      16.527 -32.060  -6.306  0.00  0.00    +0.277 C 
ENDBRANCH  29  30
BRANCH  10   9
ATOM      9  C   UNL     1      18.871 -35.268  -4.612  0.00  0.00    +0.127 C 
BRANCH   9   8
ATOM      1  C   UNL     1      17.504 -36.040  -6.588  0.00  0.00    +0.135 C 
ATOM      2  C   UNL     1      16.903 -37.247  -7.316  0.00  0.00    +0.145 C 
ATOM      3  N   UNL     1      16.217 -38.260  -6.392  0.00  0.00    +0.229 N 
ATOM      4  H   UNL     1      15.289 -37.847  -6.056  0.00  0.00    +0.201 HD
ATOM      5  H   UNL     1      16.030 -39.158  -6.943  0.00  0.00    +0.201 HD
ATOM      6  C   UNL     1      17.069 -38.597  -5.183  0.00  0.00    +0.145 C 
ATOM      7  C   UNL     1      17.507 -37.320  -4.473  0.00  0.00    +0.135 C 
ATOM      8  N   UNL     1      18.273 -36.479  -5.400  0.00  0.00    -0.288 NA
ENDBRANCH   9   8
ENDBRANCH  10   9
TORSDOF 4
