REMARK  Name = 4ebv_ligand
REMARK  4 active torsions:
REMARK  status: ('A' for Active; 'I' for Inactive)
REMARK    1  A    between atoms: C1_1  and  C2_2
REMARK    2  A    between atoms: C2_2  and  C3_3
REMARK    3  A    between atoms: C6_6  and  C9_9
REMARK    4  A    between atoms: N13_13  and  C14_14
REMARK                            x       y       z     vdW  Elec       q    Type
REMARK                         _______ _______ _______ _____ _____    ______ ____
ROOT
ATOM      7  C   UNL     1     -10.581   4.255 -16.393  0.00  0.00    -0.036 A 
ATOM      8  C   UNL     1     -10.670   3.931 -15.026  0.00  0.00    +0.000 A 
ATOM      9  C   UNL     1     -10.989   2.625 -14.615  0.00  0.00    +0.033 A 
ATOM     10  C   UNL     1     -11.089   2.326 -13.166  0.00  0.00    +0.106 A 
ATOM     11  N   UNL     1     -10.758   3.043 -12.130  0.00  0.00    -0.219 N 
ATOM     12  H   UNL     1     -10.343   3.974 -12.148  0.00  0.00    +0.252 HD
ATOM     13  N   UNL     1     -11.076   2.302 -10.993  0.00  0.00    -0.224 NA
ATOM     14  C   UNL     1     -11.577   1.115 -11.351  0.00  0.00    +0.085 A 
ATOM     15  C   UNL     1     -11.604   1.099 -12.682  0.00  0.00    +0.129 A 
ATOM     16  S   UNL     1     -12.192  -0.109 -13.806  0.00  0.00    +0.081 S 
ATOM     17  O   UNL     1     -11.781  -1.427 -13.392  0.00  0.00    -0.149 OA
ATOM     18  O   UNL     1     -13.578   0.155 -14.079  0.00  0.00    -0.149 OA
ATOM     19  N   UNL     1     -11.487   0.264 -15.266  0.00  0.00    -0.175 N 
ATOM     20  C   UNL     1     -11.196  -0.817 -16.216  0.00  0.00    +0.205 C 
ATOM     21  C   UNL     1     -11.205   1.598 -15.583  0.00  0.00    +0.083 A 
ATOM     22  C   UNL     1     -11.110   1.926 -16.937  0.00  0.00    +0.009 A 
ATOM     23  C   UNL     1     -10.813   3.230 -17.327  0.00  0.00    -0.010 A 
ENDROOT
BRANCH   7   6
ATOM      3  C   UNL     1      -9.376   8.209 -17.640  0.00  0.00    -0.045 A 
ATOM      4  C   UNL     1      -8.783   7.622 -16.523  0.00  0.00    -0.006 A 
ATOM      5  C   UNL     1      -9.201   6.347 -16.142  0.00  0.00    -0.005 A 
ATOM      6  C   UNL     1     -10.204   5.637 -16.849  0.00  0.00    -0.034 A 
ATOM     24  C   UNL     1     -10.771   6.245 -17.982  0.00  0.00    -0.005 A 
ATOM     25  C   UNL     1     -10.352   7.522 -18.354  0.00  0.00    -0.006 A 
BRANCH   3   2
ATOM      1  C   UNL     1      -8.097   9.454 -19.323  0.00  0.00    +0.020 C 
ATOM      2  C   UNL     1      -8.967   9.600 -18.083  0.00  0.00    +0.062 C 
ENDBRANCH   3   2
ENDBRANCH   7   6
TORSDOF 2
