REMARK  Name = 4AW1
REMARK  8 active torsions:
REMARK  status: ('A' for Active; 'I' for Inactive)
REMARK    1  A    between atoms: C_2  and  C_4
REMARK    2  A    between atoms: C_4  and  C_5
REMARK    3  A    between atoms: C_4  and  C_8
REMARK    4  A    between atoms: C_8  and  C_9
REMARK    5  A    between atoms: C_8  and  C_15
REMARK    6  A    between atoms: C_15  and  C_16
REMARK    7  A    between atoms: C_16  and  C_18
REMARK    8  A    between atoms: C_21  and  C_22
REMARK                            x       y       z     vdW  Elec       q    Type
REMARK                         _______ _______ _______ _____ _____    ______ ____
ROOT
ATOM      4  C   UNL     1      -9.380  37.579  -8.883  0.00  0.00    +0.041 C 
ENDROOT
BRANCH   4  18
ATOM     18  C   UNL     1      -9.853  36.171  -8.940  0.00  0.00    -0.043 A 
ATOM     19  C   UNL     1      -9.494  35.357 -10.015  0.00  0.00    +0.004 A 
ATOM     20  C   UNL     1      -9.919  34.036 -10.080  0.00  0.00    +0.000 A 
ATOM     21  C   UNL     1     -10.727  33.535  -9.060  0.00  0.00    +0.000 A 
ATOM     22  C   UNL     1     -11.100  34.346  -7.989  0.00  0.00    +0.000 A 
ATOM     23  C   UNL     1     -10.664  35.670  -7.925  0.00  0.00    +0.004 A 
ENDBRANCH   4  18
BRANCH   4   3
ATOM      3  C   UNL     1      -7.920  37.667  -9.339  0.00  0.00    +0.088 C 
BRANCH   3   2
ATOM      1  O   UNL     1      -6.480  39.507  -9.729  0.00  0.00    -0.549 OA
ATOM      2  C   UNL     1      -7.383  39.028  -9.004  0.00  0.00    +0.051 C 
ATOM     27  O   UNL     1      -7.853  39.618  -8.002  0.00  0.00    -0.549 OA
ENDBRANCH   3   2
BRANCH   3  24
ATOM     24  C   UNL     1      -7.009  36.623  -8.744  0.00  0.00    +0.051 C 
ATOM     25  O   UNL     1      -6.079  36.202  -9.472  0.00  0.00    -0.549 OA
ATOM     26  O   UNL     1      -7.171  36.225  -7.563  0.00  0.00    -0.549 OA
ENDBRANCH   3  24
ENDBRANCH   4   3
BRANCH   4   5
ATOM      5  C   UNL     1     -10.227  38.482  -9.790  0.00  0.00    +0.088 C 
BRANCH   5   6
ATOM      6  C   UNL     1     -11.668  38.574  -9.332  0.00  0.00    +0.164 C 
ATOM     17  O   UNL     1     -11.941  38.437  -8.150  0.00  0.00    -0.292 OA
BRANCH   6   7
ATOM      7  C   UNL     1     -12.757  38.830 -10.338  0.00  0.00    +0.017 A 
ATOM      8  C   UNL     1     -12.460  39.359 -11.590  0.00  0.00    +0.012 A 
ATOM      9  C   UNL     1     -13.481  39.578 -12.519  0.00  0.00    +0.013 A 
ATOM     10  C   UNL     1     -14.804  39.281 -12.194  0.00  0.00    +0.055 A 
ATOM     15  C   UNL     1     -15.101  38.753 -10.944  0.00  0.00    +0.013 A 
ATOM     16  C   UNL     1     -14.079  38.536 -10.018  0.00  0.00    +0.012 A 
BRANCH  10  11
ATOM     11  C   UNL     1     -15.914  39.513 -13.192  0.00  0.00    +0.417 C 
ATOM     12  F   UNL     1     -15.395  39.742 -14.384  0.00  0.00    -0.166 F 
ATOM     13  F   UNL     1     -16.661  40.550 -12.836  0.00  0.00    -0.166 F 
ATOM     14  F   UNL     1     -16.683  38.441 -13.249  0.00  0.00    -0.166 F 
ENDBRANCH  10  11
ENDBRANCH   6   7
ENDBRANCH   5   6
ENDBRANCH   4   5
TORSDOF 8
