REMARK  Name = 4jln_ligand
REMARK  13 active torsions:
REMARK  status: ('A' for Active; 'I' for Inactive)
REMARK    1  A    between atoms: CAK_2  and  CAL_3
REMARK    2  A    between atoms: CAL_3  and  OAS_4
REMARK    3  A    between atoms: OAS_4  and  CBA_5
REMARK    4  A    between atoms: CAZ_7  and  OAR_8
REMARK    5  A    between atoms: OAR_8  and  CAB_9
REMARK    6  A    between atoms: CAX_12  and  CBD_13
REMARK    7  A    between atoms: CBC_16  and  CAM_17
REMARK    8  A    between atoms: CAM_17  and  CAJ_18
REMARK    9  A    between atoms: CAJ_18  and  CAA_19
REMARK   10  A    between atoms: CBB_20  and  CAN_21
REMARK   11  A    between atoms: CAN_21  and  SAT_22
REMARK   12  A    between atoms: SAT_22  and  C2_23
REMARK   13  A    between atoms: C4_29  and  NAD_30
REMARK                            x       y       z     vdW  Elec       q    Type
REMARK                         _______ _______ _______ _____ _____    ______ ____
ROOT
ATOM     10  C   UNL     1     -32.789  12.386  -4.007  0.00  0.00    +0.091 A 
ATOM     11  S   UNL     1     -32.167  13.322  -5.209  0.00  0.00    -0.015 S 
ATOM     12  C   UNL     1     -30.666  13.310  -4.692  0.00  0.00    +0.027 A 
ATOM     13  C   UNL     1     -30.620  12.588  -3.571  0.00  0.00    +0.008 A 
ATOM     31  N   UNL     1     -31.794  12.065  -3.187  0.00  0.00    -0.323 NA
ENDROOT
BRANCH  10   9
ATOM      5  C   UNL     1     -35.801  10.633  -2.884  0.00  0.00    +0.123 A 
ATOM      6  C   UNL     1     -36.786  11.409  -3.479  0.00  0.00    +0.124 A 
ATOM      7  C   UNL     1     -36.437  12.519  -4.246  0.00  0.00    +0.016 A 
ATOM      8  C   UNL     1     -35.083  12.818  -4.415  0.00  0.00    -0.014 A 
ATOM      9  C   UNL     1     -34.074  12.034  -3.835  0.00  0.00    -0.006 A 
ATOM     34  C   UNL     1     -34.436  10.936  -3.049  0.00  0.00    +0.024 A 
BRANCH   6  32
ATOM     32  O   UNL     1     -38.075  11.007  -3.235  0.00  0.00    -0.322 OA
ATOM     33  C   UNL     1     -39.066  11.222  -4.263  0.00  0.00    +0.231 C 
ENDBRANCH   6  32
BRANCH   5   4
ATOM      4  O   UNL     1     -36.301   9.601  -2.151  0.00  0.00    -0.319 OA
BRANCH   4   3
ATOM      3  C   UNL     1     -35.429   8.585  -1.663  0.00  0.00    +0.223 C 
BRANCH   3   2
ATOM      1  F   UNL     1     -36.899   8.183   0.264  0.00  0.00    -0.246 F 
ATOM      2  C   UNL     1     -36.320   7.572  -0.943  0.00  0.00    +0.246 C 
ENDBRANCH   3   2
ENDBRANCH   4   3
ENDBRANCH   5   4
ENDBRANCH  10   9
BRANCH  13  14
ATOM     14  C   UNL     1     -29.347  12.325  -2.783  0.00  0.00    +0.143 C 
BRANCH  14  15
ATOM     15  S   UNL     1     -28.601  10.782  -3.382  0.00  0.00    -0.055 S 
BRANCH  15  16
ATOM     16  C   UNL     1     -26.920  11.196  -3.666  0.00  0.00    +0.133 A 
ATOM     17  N   UNL     1     -26.024  10.207  -3.839  0.00  0.00    -0.261 NA
ATOM     18  C   UNL     1     -24.712  10.458  -4.059  0.00  0.00    +0.102 A 
ATOM     19  C   UNL     1     -24.279  11.785  -4.107  0.00  0.00    +0.063 A 
ATOM     20  C   UNL     1     -25.236  12.788  -3.927  0.00  0.00    +0.102 A 
ATOM     24  N   UNL     1     -23.839   9.447  -4.212  0.00  0.00    -0.320 N 
ATOM     25  H   UNL     1     -24.167   8.472  -4.162  0.00  0.00    +0.180 HD
ATOM     26  H   UNL     1     -22.843   9.648  -4.379  0.00  0.00    +0.180 HD
ATOM     27  N   UNL     1     -26.534  12.478  -3.721  0.00  0.00    -0.261 NA
BRANCH  20  21
ATOM     21  N   UNL     1     -24.880  14.065  -3.978  0.00  0.00    -0.320 N 
ATOM     22  H   UNL     1     -25.590  14.803  -3.861  0.00  0.00    +0.180 HD
ATOM     23  H   UNL     1     -23.894  14.319  -4.134  0.00  0.00    +0.180 HD
ENDBRANCH  20  21
ENDBRANCH  15  16
ENDBRANCH  14  15
ENDBRANCH  13  14
BRANCH  12  28
ATOM     28  C   UNL     1     -29.486  14.013  -5.372  0.00  0.00    +0.072 C 
BRANCH  28  29
ATOM     29  C   UNL     1     -29.752  15.522  -5.451  0.00  0.00    +0.011 C 
ATOM     30  C   UNL     1     -28.906  16.252  -4.402  0.00  0.00    +0.006 C 
ENDBRANCH  28  29
ENDBRANCH  12  28
TORSDOF 11
