REMARK  Name = 3anr_ligand
REMARK  3 active torsions:
REMARK  status: ('A' for Active; 'I' for Inactive)
REMARK    1  A    between atoms: CAB_1  and  CAL_2
REMARK    2  A    between atoms: CAK_14  and  OAJ_15
REMARK    3  A    between atoms: OAJ_15  and  CAA_16
REMARK                            x       y       z     vdW  Elec       q    Type
REMARK                         _______ _______ _______ _____ _____    ______ ____
ROOT
ATOM      1  C   UNL     1       4.502  25.204  14.241  0.00  0.00    +0.103 C 
ATOM      2  C   UNL     1       5.985  25.242  13.874  0.00  0.00    +0.045 A 
ATOM      3  C   UNL     1       6.501  26.161  12.972  0.00  0.00    +0.093 A 
ATOM      4  N   UNL     1       5.966  27.151  12.253  0.00  0.00    -0.273 N 
ATOM      5  H   UNL     1       4.981  27.417  12.257  0.00  0.00    +0.216 HD
ATOM      6  C   UNL     1       6.900  27.725  11.545  0.00  0.00    +0.060 A 
ATOM      7  C   UNL     1       8.125  27.125  11.764  0.00  0.00    -0.006 A 
ATOM      8  C   UNL     1       9.342  27.551  11.101  0.00  0.00    -0.014 A 
ATOM      9  C   UNL     1       9.240  28.648  10.180  0.00  0.00    +0.005 A 
ATOM     10  C   UNL     1       7.948  29.240   9.993  0.00  0.00    +0.082 A 
ATOM     13  C   UNL     1       6.793  28.775  10.676  0.00  0.00    +0.035 A 
ATOM     14  C   UNL     1       7.881  26.127  12.676  0.00  0.00    +0.003 A 
ATOM     15  C   UNL     1       8.742  25.168  13.288  0.00  0.00    +0.007 A 
ATOM     16  C   UNL     1       8.181  24.260  14.199  0.00  0.00    +0.051 A 
ATOM     17  N   UNL     1       6.834  24.324  14.460  0.00  0.00    -0.316 NA
ENDROOT
BRANCH  10  11
ATOM     11  O   UNL     1       7.832  30.307   9.100  0.00  0.00    -0.324 OA
ATOM     12  C   UNL     1       6.546  31.051   8.991  0.00  0.00    +0.233 C 
ENDBRANCH  10  11
TORSDOF 1
