REMARK  Name = 3ma3_ligand
REMARK  2 active torsions:
REMARK  status: ('A' for Active; 'I' for Inactive)
REMARK    1  A    between atoms: CAL_12  and  CAR_18
REMARK    2  A    between atoms: CAO_15  and  CAQ_17
REMARK                            x       y       z     vdW  Elec       q    Type
REMARK                         _______ _______ _______ _____ _____    ______ ____
ROOT
ATOM      1  C   UNL     1     -21.831  39.490   0.793  0.00  0.00    -0.008 A 
ATOM      2  C   UNL     1     -20.915  38.589   1.329  0.00  0.00    -0.038 A 
ATOM      3  C   UNL     1     -20.684  38.620   2.698  0.00  0.00    -0.011 A 
ATOM      4  C   UNL     1     -19.790  37.735   3.290  0.00  0.00    +0.028 A 
ATOM      5  C   UNL     1     -19.109  36.861   2.480  0.00  0.00    +0.125 A 
ATOM      6  O   UNL     1     -18.145  35.874   2.814  0.00  0.00    -0.247 OA
ATOM      7  C   UNL     1     -17.821  35.264   1.743  0.00  0.00    +0.152 A 
ATOM     11  C   UNL     1     -18.488  35.774   0.619  0.00  0.00    +0.010 A 
ATOM     12  C   UNL     1     -19.334  36.805   1.137  0.00  0.00    -0.003 A 
ATOM     13  C   UNL     1     -20.232  37.664   0.523  0.00  0.00    -0.033 A 
ATOM     14  C   UNL     1     -20.441  37.628  -0.833  0.00  0.00    +0.025 A 
ATOM     15  C   UNL     1     -21.352  38.532  -1.344  0.00  0.00    +0.124 A 
ATOM     16  O   UNL     1     -21.746  38.700  -2.693  0.00  0.00    -0.247 OA
ATOM     17  C   UNL     1     -22.601  39.631  -2.760  0.00  0.00    +0.153 A 
ATOM     21  C   UNL     1     -22.863  40.163  -1.496  0.00  0.00    +0.012 A 
ATOM     22  C   UNL     1     -22.027  39.435  -0.582  0.00  0.00    -0.005 A 
ENDROOT
BRANCH   7   8
ATOM      8  C   UNL     1     -16.828  34.181   1.915  0.00  0.00    +0.097 C 
ATOM      9  O   UNL     1     -16.672  33.386   0.952  0.00  0.00    -0.559 OA
ATOM     10  O   UNL     1     -16.239  34.105   3.024  0.00  0.00    -0.559 OA
ENDBRANCH   7   8
BRANCH  17  18
ATOM     18  C   UNL     1     -23.104  39.896  -4.145  0.00  0.00    +0.099 C 
ATOM     19  O   UNL     1     -24.098  40.642  -4.299  0.00  0.00    -0.558 OA
ATOM     20  O   UNL     1     -22.500  39.363  -5.113  0.00  0.00    -0.558 OA
ENDBRANCH  17  18
TORSDOF 2
