REMARK  Name = 3sc1_ligand
REMARK  3 active torsions:
REMARK  status: ('A' for Active; 'I' for Inactive)
REMARK    1  A    between atoms: C8_8  and  C7_9
REMARK    2  A    between atoms: C2_12  and  C1_16
REMARK    3  A    between atoms: C1_16  and  O1_19
REMARK                            x       y       z     vdW  Elec       q    Type
REMARK                         _______ _______ _______ _____ _____    ______ ____
ROOT
ATOM      9  C   UNL     1      36.185  26.853  28.750  0.00  0.00    -0.028 A 
ATOM     10  C   UNL     1      35.930  28.090  28.076  0.00  0.00    -0.005 A 
ATOM     11  C   UNL     1      34.607  28.576  27.900  0.00  0.00    -0.036 A 
ATOM     12  C   UNL     1      34.359  29.863  27.201  0.00  0.00    -0.020 A 
ATOM     13  C   UNL     1      33.084  30.287  27.058  0.00  0.00    +0.164 A 
ATOM     14  N   UNL     1      32.013  29.553  27.542  0.00  0.00    -0.225 N 
ATOM     15  H   UNL     1      31.078  29.935  27.397  0.00  0.00    +0.249 HD
ATOM     16  C   UNL     1      32.112  28.324  28.217  0.00  0.00    +0.225 A 
ATOM     17  O   UNL     1      31.142  27.702  28.631  0.00  0.00    -0.394 OA
ATOM     18  C   UNL     1      33.505  27.800  28.408  0.00  0.00    +0.046 A 
ATOM     19  C   UNL     1      33.737  26.568  29.082  0.00  0.00    +0.011 A 
ATOM     20  C   UNL     1      35.063  26.105  29.249  0.00  0.00    -0.006 A 
ENDROOT
BRANCH   9   3
ATOM      1  C   UNL     1      39.833  26.847  29.936  0.00  0.00    -0.011 A 
ATOM      2  C   UNL     1      38.479  27.203  29.715  0.00  0.00    +0.002 A 
ATOM      3  C   UNL     1      37.592  26.379  28.918  0.00  0.00    -0.013 A 
ATOM      4  C   UNL     1      38.138  25.153  28.335  0.00  0.00    -0.008 A 
ATOM      8  C   UNL     1      39.513  24.822  28.582  0.00  0.00    -0.000 A 
ATOM     21  C   UNL     1      40.346  25.658  29.370  0.00  0.00    -0.007 A 
BRANCH   4   5
ATOM      5  C   UNL     1      37.358  24.179  27.469  0.00  0.00    +0.226 C 
BRANCH   5   6
ATOM      6  O   UNL     1      36.477  23.417  28.279  0.00  0.00    -0.382 OA
ATOM      7  H   UNL     1      35.987  22.803  27.727  0.00  0.00    +0.213 HD
ENDBRANCH   5   6
ENDBRANCH   4   5
ENDBRANCH   9   3
TORSDOF 3
