REMARK  Name = R69
REMARK  6 active torsions:
REMARK  status: ('A' for Active; 'I' for Inactive)
REMARK    1  A    between atoms: C21_2  and  C14_3
REMARK    2  A    between atoms: N23_9  and  C31_10
REMARK    3  A    between atoms: C37_16  and  N41_17
REMARK    4  A    between atoms: C42_18  and  C51_20
REMARK    5  A    between atoms: C54_25  and  C61_26
REMARK    6  A    between atoms: C61_26  and  C71_28
REMARK                            x       y       z     vdW  Elec       q    Type
REMARK                         _______ _______ _______ _____ _____    ______ ____
ROOT
ATOM     10  N   UNL     1      10.959  40.177  13.316  0.00  0.00    -0.202 NA
ATOM     11  C   UNL     1      12.122  40.106  14.060  0.00  0.00    +0.265 C 
ATOM     27  O   UNL     1      12.856  41.085  14.106  0.00  0.00    -0.268 OA
ENDROOT
BRANCH  10   5
ATOM      4  C   UNL     1       9.399  41.127  11.670  0.00  0.00    +0.133 C 
ATOM      5  C   UNL     1      10.441  41.457  12.784  0.00  0.00    +0.117 C 
ATOM      6  C   UNL     1       9.980  42.412  13.909  0.00  0.00    +0.025 C 
ATOM      7  C   UNL     1       8.934  41.820  14.867  0.00  0.00    +0.021 C 
ATOM      8  C   UNL     1       7.517  41.913  14.299  0.00  0.00    +0.089 C 
ATOM      9  N   UNL     1       7.314  41.061  13.044  0.00  0.00    -0.216 NA
ATOM     28  C   UNL     1       7.957  41.644  11.814  0.00  0.00    +0.112 C 
BRANCH   4   3
ATOM      1  O   UNL     1      10.072  39.613   9.425  0.00  0.00    -0.268 OA
ATOM      2  C   UNL     1      10.102  40.851   9.284  0.00  0.00    +0.265 C 
ATOM      3  N   UNL     1       9.937  41.651  10.407  0.00  0.00    -0.200 NA
BRANCH   2  29
ATOM     29  C   UNL     1      10.249  41.488   7.968  0.00  0.00    +0.058 A 
ATOM     30  C   UNL     1      10.530  42.848   7.799  0.00  0.00    +0.025 A 
ATOM     31  C   UNL     1      10.638  43.355   6.506  0.00  0.00    +0.099 A 
ATOM     32  N   UNL     1      10.474  42.611   5.403  0.00  0.00    -0.242 NA
ATOM     33  C   UNL     1      10.209  41.317   5.539  0.00  0.00    +0.099 A 
ATOM     34  C   UNL     1      10.096  40.738   6.800  0.00  0.00    +0.025 A 
ENDBRANCH   2  29
ENDBRANCH   4   3
ENDBRANCH  10   5
BRANCH  11  12
ATOM     12  C   UNL     1      12.433  38.897  14.849  0.00  0.00    +0.055 A 
ATOM     13  C   UNL     1      13.747  38.667  15.318  0.00  0.00    +0.005 A 
ATOM     14  C   UNL     1      14.036  37.556  16.097  0.00  0.00    +0.003 A 
ATOM     15  C   UNL     1      13.019  36.643  16.429  0.00  0.00    +0.039 A 
ATOM     25  C   UNL     1      11.731  36.884  15.967  0.00  0.00    +0.003 A 
ATOM     26  C   UNL     1      11.433  37.993  15.192  0.00  0.00    +0.005 A 
BRANCH  15  16
ATOM     16  C   UNL     1      13.310  35.504  17.295  0.00  0.00    +0.199 C 
ATOM     17  O   UNL     1      14.269  35.638  18.090  0.00  0.00    -0.286 OA
BRANCH  16  18
ATOM     18  C   UNL     1      12.568  34.279  17.366  0.00  0.00    +0.078 A 
ATOM     19  C   UNL     1      12.021  33.922  18.616  0.00  0.00    +0.006 A 
ATOM     20  C   UNL     1      11.317  32.730  18.738  0.00  0.00    +0.000 A 
ATOM     21  C   UNL     1      11.152  31.895  17.605  0.00  0.00    +0.003 A 
ATOM     22  C   UNL     1      11.688  32.234  16.382  0.00  0.00    +0.042 A 
ATOM     23  C   UNL     1      12.415  33.445  16.224  0.00  0.00    +0.199 A 
ATOM     24  O   UNL     1      12.903  33.767  15.067  0.00  0.00    -0.286 OA
ENDBRANCH  16  18
ENDBRANCH  15  16
ENDBRANCH  11  12
TORSDOF 6
