REMARK  Name = 4FZ7
REMARK  6 active torsions:
REMARK  status: ('A' for Active; 'I' for Inactive)
REMARK    1  A    between atoms: C_4  and  C_8
REMARK    2  A    between atoms: N_7  and  C_9
REMARK    3  A    between atoms: C_8  and  C_26
REMARK    4  A    between atoms: C_14  and  C_15
REMARK    5  A    between atoms: N_18  and  C_19
REMARK    6  A    between atoms: C_20  and  N_25
REMARK                            x       y       z     vdW  Elec       q    Type
REMARK                         _______ _______ _______ _____ _____    ______ ____
ROOT
ATOM      5  C   UNL     1       3.113   0.403  14.290  0.00  0.00    +0.068 A 
ATOM      6  C   UNL     1       4.449   0.575  14.791  0.00  0.00    +0.169 A 
ATOM     12  N   UNL     1       5.163   1.693  14.539  0.00  0.00    -0.141 NA
ATOM     13  N   UNL     1       4.648   2.651  13.796  0.00  0.00    -0.134 NA
ATOM     14  C   UNL     1       3.436   2.553  13.230  0.00  0.00    +0.143 A 
ATOM     15  N   UNL     1       2.968   3.617  12.520  0.00  0.00    -0.323 N 
ATOM     16  H   UNL     1       3.620   4.437  12.301  0.00  0.00    +0.148 HD
ATOM     26  C   UNL     1       2.567   1.450  13.488  0.00  0.00    +0.071 A 
ENDROOT
BRANCH   5   3
ATOM      1  C   UNL     1       0.616  -2.208  15.127  0.00  0.00    +0.044 A 
ATOM      2  C   UNL     1       1.140  -1.101  14.496  0.00  0.00    +0.123 A 
ATOM      3  N   UNL     1       2.515  -0.795  14.613  0.00  0.00    -0.297 N 
ATOM      4  H   UNL     1       3.152  -1.568  14.989  0.00  0.00    +0.154 HD
ATOM     27  N   UNL     1       0.405  -0.354  13.677  0.00  0.00    -0.237 NA
ATOM     28  C   UNL     1      -0.882  -0.626  13.474  0.00  0.00    +0.043 A 
ATOM     31  C   UNL     1      -1.506  -1.691  14.144  0.00  0.00    +0.023 A 
ATOM     32  C   UNL     1      -0.749  -2.520  14.976  0.00  0.00    +0.005 A 
BRANCH  28  29
ATOM     29  C   UNL     1      -1.691   0.280  12.571  0.00  0.00    +0.052 C 
ATOM     30  C   UNL     1      -1.159   0.417  11.127  0.00  0.00    +0.010 C 
ENDBRANCH  28  29
ENDBRANCH   5   3
BRANCH  15  17
ATOM     17  C   UNL     1       1.585   3.648  12.056  0.00  0.00    +0.088 C 
ATOM     18  C   UNL     1       1.560   4.385  10.698  0.00  0.00    +0.024 C 
ATOM     19  C   UNL     1       0.138   4.544  10.113  0.00  0.00    +0.002 C 
ATOM     20  C   UNL     1      -0.832   5.066  11.211  0.00  0.00    +0.002 C 
ATOM     21  C   UNL     1      -0.747   4.373  12.603  0.00  0.00    +0.020 C 
ATOM     22  C   UNL     1       0.688   4.289  13.166  0.00  0.00    +0.071 C 
BRANCH  22  23
ATOM     23  N   UNL     1       1.122   5.665  13.537  0.00  0.00    -0.326 NA
ATOM     24  H   UNL     1       2.126   5.636  13.906  0.00  0.00    +0.118 HD
ATOM     25  H   UNL     1       1.077   6.298  12.676  0.00  0.00    +0.118 HD
ENDBRANCH  22  23
ENDBRANCH  15  17
BRANCH   6   7
ATOM      7  C   UNL     1       5.082  -0.464  15.630  0.00  0.00    +0.264 C 
ATOM      8  N   UNL     1       6.384  -0.301  15.824  0.00  0.00    -0.324 N 
ATOM      9  H   UNL     1       6.928  -1.004  16.419  0.00  0.00    +0.145 HD
ATOM     10  H   UNL     1       6.890   0.534  15.386  0.00  0.00    +0.145 HD
ATOM     11  O   UNL     1       4.503  -1.442  16.164  0.00  0.00    -0.269 OA
ENDBRANCH   6   7
TORSDOF 5
