REMARK  Name = 3d0e_ligand
REMARK  11 active torsions:
REMARK  status: ('A' for Active; 'I' for Inactive)
REMARK    1  A    between atoms: C3_1  and  C2_4
REMARK    2  A    between atoms: N2_2  and  C13_15
REMARK    3  A    between atoms: O2_5  and  C9_23
REMARK    4  A    between atoms: O2_5  and  C10_25
REMARK    5  A    between atoms: C16_13  and  C15_14
REMARK    6  A    between atoms: C13_15  and  C14_16
REMARK    7  A    between atoms: C4_17  and  C5_18
REMARK    8  A    between atoms: C5_18  and  C7_19
REMARK    9  A    between atoms: C5_18  and  C6_20
REMARK   10  A    between atoms: C5_18  and  O1_21
REMARK   11  A    between atoms: C10_25  and  C11_26
REMARK                            x       y       z     vdW  Elec       q    Type
REMARK                         _______ _______ _______ _____ _____    ______ ____
ROOT
ATOM      8  C   UNL     1      23.230 -18.192   6.272  0.00  0.00    +0.082 A 
ATOM      9  C   UNL     1      22.919 -17.947   7.613  0.00  0.00    +0.065 A 
ATOM     10  C   UNL     1      22.615 -19.029   8.449  0.00  0.00    +0.135 A 
ATOM     11  C   UNL     1      22.609 -20.337   7.946  0.00  0.00    +0.141 A 
ATOM     12  C   UNL     1      22.922 -20.507   6.593  0.00  0.00    +0.087 A 
ATOM     23  N   UNL     1      22.356 -18.599   9.703  0.00  0.00    -0.230 N 
ATOM     26  C   UNL     1      22.509 -17.261   9.599  0.00  0.00    +0.159 A 
ATOM     35  N   UNL     1      22.853 -16.829   8.364  0.00  0.00    -0.301 NA
ATOM     36  N   UNL     1      23.212 -19.460   5.809  0.00  0.00    -0.314 NA
ENDROOT
BRANCH  26  27
ATOM     27  C   UNL     1      22.356 -16.272  10.726  0.00  0.00    +0.174 A 
ATOM     28  N   UNL     1      22.311 -16.593  12.041  0.00  0.00    -0.078 NA
ATOM     29  O   UNL     1      22.190 -15.283  12.642  0.00  0.00    -0.067 OA
ATOM     30  N   UNL     1      22.187 -14.209  11.686  0.00  0.00    -0.096 NA
ATOM     31  C   UNL     1      22.313 -14.895  10.538  0.00  0.00    +0.159 A 
ATOM     32  N   UNL     1      22.362 -14.292   9.314  0.00  0.00    -0.327 N 
ATOM     33  H   UNL     1      22.302 -13.266   9.242  0.00  0.00    +0.170 HD
ATOM     34  H   UNL     1      22.459 -14.863   8.462  0.00  0.00    +0.170 HD
ENDBRANCH  26  27
BRANCH   8   1
ATOM      1  C   UNL     1      23.495 -17.251   5.431  0.00  0.00    -0.059 C 
ATOM      2  C   UNL     1      23.758 -16.535   4.508  0.00  0.00    -0.065 C 
BRANCH   2   3
ATOM      3  C   UNL     1      23.836 -15.626   3.343  0.00  0.00    +0.120 C 
ATOM      6  C   UNL     1      25.295 -15.276   3.082  0.00  0.00    +0.055 C 
ATOM      7  C   UNL     1      23.025 -14.366   3.627  0.00  0.00    +0.055 C 
BRANCH   3   4
ATOM      4  O   UNL     1      23.324 -16.280   2.178  0.00  0.00    -0.377 OA
ATOM      5  H   UNL     1      23.833 -17.064   2.007  0.00  0.00    +0.211 HD
ENDBRANCH   3   4
ENDBRANCH   2   3
ENDBRANCH   8   1
BRANCH  23  24
ATOM     24  C   UNL     1      21.973 -19.395  10.885  0.00  0.00    +0.174 C 
ATOM     25  C   UNL     1      23.160 -19.998  11.598  0.00  0.00    +0.038 C 
ENDBRANCH  23  24
BRANCH  11  13
ATOM     13  O   UNL     1      22.308 -21.434   8.724  0.00  0.00    -0.312 OA
BRANCH  13  14
ATOM     14  C   UNL     1      22.036 -22.721   8.149  0.00  0.00    +0.203 C 
BRANCH  14  15
ATOM     15  C   UNL     1      21.489 -23.699   9.184  0.00  0.00    +0.065 C 
ATOM     16  C   UNL     1      22.507 -23.927  10.293  0.00  0.00    +0.016 C 
ATOM     17  C   UNL     1      22.000 -25.013  11.232  0.00  0.00    +0.051 C 
ATOM     18  C   UNL     1      20.667 -24.607  11.858  0.00  0.00    +0.129 C 
ATOM     19  N   UNL     1      19.747 -24.015  10.902  0.00  0.00    +0.227 N 
ATOM     20  H   UNL     1      19.110 -23.449  11.441  0.00  0.00    +0.201 HD
ATOM     21  H   UNL     1      19.244 -24.783  10.486  0.00  0.00    +0.201 HD
ATOM     22  C   UNL     1      20.195 -23.178   9.795  0.00  0.00    +0.135 C 
ENDBRANCH  14  15
ENDBRANCH  13  14
ENDBRANCH  11  13
TORSDOF 8
