REMARK  Name = 5TVT
REMARK  8 active torsions:
REMARK  status: ('A' for Active; 'I' for Inactive)
REMARK    1  A    between atoms: C_1  and  N_34
REMARK    2  A    between atoms: C_2  and  C_3
REMARK    3  A    between atoms: C_2  and  N_34
REMARK    4  A    between atoms: C_6  and  N_8
REMARK    5  A    between atoms: O_7  and  C_14
REMARK    6  A    between atoms: N_11  and  C_31
REMARK    7  A    between atoms: C_19  and  C_20
REMARK    8  A    between atoms: N_34  and  C_35
REMARK                            x       y       z     vdW  Elec       q    Type
REMARK                         _______ _______ _______ _____ _____    ______ ____
ROOT
ATOM      9  N   UNL     1       2.458  80.231   2.255  0.00  0.00    -0.250 N 
ATOM     10  C   UNL     1       1.555  81.164   1.684  0.00  0.00    +0.309 C 
ATOM     11  O   UNL     1       1.362  82.286   2.200  0.00  0.00    -0.252 OA
ATOM     12  N   UNL     1       0.831  80.884   0.510  0.00  0.00    -0.284 N 
ATOM     13  C   UNL     1      -0.077  81.905  -0.017  0.00  0.00    +0.134 C 
ATOM     14  C   UNL     1       0.937  79.626  -0.218  0.00  0.00    +0.147 C 
ATOM     15  C   UNL     1       1.859  78.678   0.374  0.00  0.00    +0.012 A 
ATOM     16  C   UNL     1       1.996  77.464  -0.285  0.00  0.00    +0.118 A 
ATOM     17  N   UNL     1       2.808  76.495   0.140  0.00  0.00    -0.253 NA
ATOM     18  C   UNL     1       3.563  76.621   1.247  0.00  0.00    +0.091 A 
ATOM     19  C   UNL     1       3.535  77.860   2.069  0.00  0.00    +0.112 A 
ATOM     20  N   UNL     1       4.330  77.896   3.163  0.00  0.00    -0.243 NA
ATOM     21  C   UNL     1       5.116  76.850   3.511  0.00  0.00    +0.072 A 
ATOM     22  C   UNL     1       5.159  75.680   2.763  0.00  0.00    +0.030 A 
ATOM     33  C   UNL     1       4.378  75.564   1.625  0.00  0.00    +0.032 A 
ATOM     34  C   UNL     1       2.630  78.969   1.616  0.00  0.00    +0.072 A 
ENDROOT
BRANCH  21  23
ATOM     23  C   UNL     1       5.947  76.967   4.732  0.00  0.00    +0.003 A 
ATOM     24  C   UNL     1       6.321  75.820   5.430  0.00  0.00    +0.033 A 
ATOM     25  C   UNL     1       7.088  75.906   6.587  0.00  0.00    +0.084 A 
ATOM     26  C   UNL     1       7.499  77.241   7.074  0.00  0.00    +0.153 A 
ATOM     27  C   UNL     1       7.068  78.420   6.295  0.00  0.00    +0.084 A 
ATOM     28 CL   UNL     1       7.528  80.061   6.824  0.00  0.00    -0.080 Cl
ATOM     31 CL   UNL     1       7.581  74.437   7.486  0.00  0.00    -0.080 Cl
ATOM     32  C   UNL     1       6.304  78.241   5.154  0.00  0.00    +0.033 A 
BRANCH  26  29
ATOM     29  O   UNL     1       8.254  77.387   8.195  0.00  0.00    -0.504 OA
ATOM     30  H   UNL     1       7.743  76.980   9.017  0.00  0.00    +0.292 HD
ENDBRANCH  26  29
ENDBRANCH  21  23
BRANCH   9   8
ATOM      5  C   UNL     1       3.918  82.282   5.762  0.00  0.00    +0.003 C 
ATOM      6  C   UNL     1       2.936  81.131   5.952  0.00  0.00    +0.006 C 
ATOM      7  C   UNL     1       2.201  80.835   4.648  0.00  0.00    +0.023 C 
ATOM      8  C   UNL     1       3.177  80.575   3.496  0.00  0.00    +0.083 C 
ATOM     35  C   UNL     1       4.141  81.742   3.322  0.00  0.00    +0.023 C 
ATOM     36  C   UNL     1       4.887  81.954   4.632  0.00  0.00    +0.006 C 
BRANCH   5   4
ATOM      4  C   UNL     1       4.723  82.511   7.037  0.00  0.00    +0.087 C 
BRANCH   4   2
ATOM      1  C   UNL     1       3.745  84.706   7.217  0.00  0.00    +0.104 C 
ATOM      2  N   UNL     1       4.045  83.457   7.934  0.00  0.00    -0.308 NA
ATOM      3  C   UNL     1       4.935  83.758   9.065  0.00  0.00    +0.104 C 
ENDBRANCH   4   2
ENDBRANCH   5   4
ENDBRANCH   9   8
TORSDOF 5
