REMARK  Name = 3cy2_ligand
REMARK  2 active torsions:
REMARK  status: ('A' for Active; 'I' for Inactive)
REMARK    1  A    between atoms: N1V_11  and  C1A_12
REMARK    2  A    between atoms: C1U_21  and  C1E_22
REMARK                            x       y       z     vdW  Elec       q    Type
REMARK                         _______ _______ _______ _____ _____    ______ ____
ROOT
ATOM      1  C   UNL     1     -15.253  33.874  -0.924  0.00  0.00    +0.086 C 
ATOM      2  C   UNL     1     -16.093  35.095  -1.161  0.00  0.00    +0.094 C 
ATOM      3  C   UNL     1     -16.952  35.429   0.047  0.00  0.00    +0.207 C 
ATOM      6  C   UNL     1     -18.060  36.402  -0.370  0.00  0.00    +0.012 A 
ATOM      7  C   UNL     1     -18.826  37.298   0.382  0.00  0.00    -0.007 A 
ATOM      8  C   UNL     1     -18.834  37.614   1.736  0.00  0.00    -0.013 A 
ATOM      9  C   UNL     1     -19.736  38.558   2.207  0.00  0.00    -0.010 A 
ATOM     10  C   UNL     1     -20.593  39.202   1.307  0.00  0.00    +0.028 A 
ATOM     11 CL   UNL     1     -21.702  40.405   1.877  0.00  0.00    -0.077 Cl
ATOM     12  C   UNL     1     -20.591  38.905  -0.052  0.00  0.00    +0.028 A 
ATOM     13  C   UNL     1     -19.715  37.917  -0.511  0.00  0.00    +0.067 A 
ATOM     14  N   UNL     1     -19.487  37.411  -1.726  0.00  0.00    -0.264 N 
ATOM     15  C   UNL     1     -20.197  37.845  -2.946  0.00  0.00    +0.204 C 
ATOM     16  C   UNL     1     -18.506  36.504  -1.705  0.00  0.00    +0.132 A 
ATOM     17  C   UNL     1     -17.955  35.686  -2.686  0.00  0.00    +0.216 C 
ATOM     18  O   UNL     1     -18.544  35.466  -3.741  0.00  0.00    -0.392 OA
ATOM     19  N   UNL     1     -16.892  34.857  -2.386  0.00  0.00    -0.278 N 
ATOM     20  H   UNL     1     -16.657  34.082  -3.007  0.00  0.00    +0.184 HD
ATOM     21  C   UNL     1     -15.208  36.314  -1.496  0.00  0.00    +0.086 C 
ATOM     22  C   UNL     1     -14.259  36.025  -2.653  0.00  0.00    +0.132 C 
ATOM     23  N   UNL     1     -13.423  34.848  -2.374  0.00  0.00    +0.227 N 
ATOM     24  H   UNL     1     -12.829  35.081  -1.579  0.00  0.00    +0.201 HD
ATOM     25  H   UNL     1     -12.908  34.633  -3.228  0.00  0.00    +0.201 HD
ATOM     26  C   UNL     1     -14.200  33.623  -2.004  0.00  0.00    +0.132 C 
ENDROOT
BRANCH   3   4
ATOM      4  C   UNL     1     -17.561  34.221   0.631  0.00  0.00    +0.105 C 
ATOM      5  N   UNL     1     -18.056  33.289   1.038  0.00  0.00    -0.301 NA
ENDBRANCH   3   4
TORSDOF 1
