REMARK  Name = 6J7
REMARK  1 active torsions:
REMARK  status: ('A' for Active; 'I' for Inactive)
REMARK    1  A    between atoms: N_12  and  C4_13
REMARK                            x       y       z     vdW  Elec       q    Type
REMARK                         _______ _______ _______ _____ _____    ______ ____
ROOT
ATOM      1 BR   UNL     1     -16.692  -1.047  -5.020  0.00  0.00    -0.008 Br
ATOM      2  C   UNL     1     -18.146  -2.293  -4.670  0.00  0.00    +0.183 C 
ATOM      3  N   UNL     1     -18.036  -3.253  -3.750  0.00  0.00    -0.214 NA
ATOM      4  C   UNL     1     -19.185  -3.918  -3.922  0.00  0.00    +0.175 C 
ATOM      5  C   UNL     1     -19.799  -5.094  -3.331  0.00  0.00    +0.302 C 
ATOM      6  O   UNL     1     -19.242  -5.731  -2.386  0.00  0.00    -0.263 OA
ATOM      7  N   UNL     1     -20.968  -5.472  -3.820  0.00  0.00    -0.171 NA
ATOM      8  C   UNL     1     -21.619  -4.854  -4.798  0.00  0.00    +0.261 C 
ATOM      9  N   UNL     1     -22.801  -5.335  -5.163  0.00  0.00    -0.086 NA
ATOM     10  N   UNL     1     -21.143  -3.762  -5.409  0.00  0.00    -0.192 NA
ATOM     11  C   UNL     1     -19.956  -3.293  -5.014  0.00  0.00    +0.173 C 
ATOM     12  N   UNL     1     -19.225  -2.269  -5.429  0.00  0.00    -0.266 NA
ENDROOT
BRANCH  12  13
ATOM     13  C   UNL     1     -19.565  -1.303  -6.472  0.00  0.00    +0.241 C 
ATOM     14  O   UNL     1     -20.747  -0.573  -6.027  0.00  0.00    -0.331 OA
ATOM     15  C   UNL     1     -21.516  -0.309  -7.203  0.00  0.00    +0.177 C 
ATOM     16  C   UNL     1     -22.995  -0.010  -7.052  0.00  0.00    +0.181 C 
ATOM     17  O   UNL     1     -23.508   0.178  -8.384  0.00  0.00    -0.311 OA
ATOM     18  P   UNL     1     -23.385  -1.095  -9.360  0.00  0.00    +0.214 P 
ATOM     19  O   UNL     1     -24.247  -2.199  -8.801  0.00  0.00    -0.437 OA
ATOM     20  O   UNL     1     -21.842  -1.459  -9.273  0.00  0.00    -0.311 OA
ATOM     21  O   UNL     1     -23.740  -0.635 -10.745  0.00  0.00    -0.517 OA
ATOM     22  C   UNL     1     -21.354  -1.604  -7.956  0.00  0.00    +0.186 C 
ATOM     23  C   UNL     1     -19.893  -1.948  -7.798  0.00  0.00    +0.231 C 
ATOM     24  O   UNL     1     -19.129  -1.271  -8.784  0.00  0.00    -0.216 OA
ENDBRANCH  12  13
TORSDOF 1
