REMARK  Name = 2c0o_ligand
REMARK  9 active torsions:
REMARK  status: ('A' for Active; 'I' for Inactive)
REMARK    1  A    between atoms: C1_1  and  C3_3
REMARK    2  A    between atoms: N2_9  and  C10_15
REMARK    3  A    between atoms: C8_13  and  O1_18
REMARK    4  A    between atoms: C12_17  and  N6_21
REMARK    5  A    between atoms: O1_18  and  C15_22
REMARK    6  A    between atoms: C18_25  and  C20_27
REMARK    7  A    between atoms: C19_26  and  N7_29
REMARK    8  A    between atoms: N8_30  and  C25_35
REMARK    9  A    between atoms: C33_44  and  C34_45
REMARK                            x       y       z     vdW  Elec       q    Type
REMARK                         _______ _______ _______ _____ _____    ______ ____
ROOT
ATOM      1  C   UNL     1       2.960  63.112  13.138  0.00  0.00    +0.059 A 
ATOM      2  N   UNL     1       3.281  61.814  12.914  0.00  0.00    -0.202 NA
ATOM      3  N   UNL     1       4.437  61.831  12.149  0.00  0.00    -0.184 N 
ATOM     20  C   UNL     1       4.909  63.045  12.010  0.00  0.00    +0.162 A 
ATOM     21  N   UNL     1       5.994  63.538  11.369  0.00  0.00    -0.268 NA
ATOM     22  C   UNL     1       6.201  64.870  11.305  0.00  0.00    +0.159 A 
ATOM     23  N   UNL     1       5.289  65.739  11.822  0.00  0.00    -0.266 NA
ATOM     24  C   UNL     1       4.173  65.268  12.444  0.00  0.00    +0.127 A 
ATOM     25  N   UNL     1       3.278  66.121  12.956  0.00  0.00    -0.313 N 
ATOM     26  H   UNL     1       2.432  65.762  13.421  0.00  0.00    +0.184 HD
ATOM     27  H   UNL     1       3.435  67.136  12.885  0.00  0.00    +0.184 HD
ATOM     50  C   UNL     1       3.968  63.901  12.536  0.00  0.00    +0.085 A 
ENDROOT
BRANCH   3   4
ATOM      4  C   UNL     1       5.053  60.479  11.904  0.00  0.00    +0.146 C 
ATOM      5  C   UNL     1       4.078  59.549  11.176  0.00  0.00    +0.043 C 
ATOM      6  C   UNL     1       4.733  58.175  10.921  0.00  0.00    +0.057 C 
ATOM      7  C   UNL     1       5.179  57.533  12.251  0.00  0.00    +0.065 C 
ATOM     18  C   UNL     1       6.135  58.477  12.993  0.00  0.00    +0.057 C 
ATOM     19  C   UNL     1       5.485  59.844  13.229  0.00  0.00    +0.043 C 
BRANCH   7   8
ATOM      8  N   UNL     1       5.848  56.219  12.027  0.00  0.00    +0.240 N 
ATOM      9  H   UNL     1       6.668  56.171  12.611  0.00  0.00    +0.204 HD
ATOM     10  C   UNL     1       4.945  55.131  12.378  0.00  0.00    +0.156 C 
ATOM     11  C   UNL     1       5.748  53.847  12.419  0.00  0.00    +0.189 C 
ATOM     12  N   UNL     1       6.276  53.667  11.055  0.00  0.00    -0.263 N 
ATOM     13  C   UNL     1       6.102  52.522  10.371  0.00  0.00    +0.176 C 
ATOM     14  O   UNL     1       6.568  52.362   9.264  0.00  0.00    -0.397 OA
ATOM     15  C   UNL     1       5.303  51.437  11.068  0.00  0.00    +0.166 C 
ATOM     16  C   UNL     1       7.096  54.792  10.508  0.00  0.00    +0.189 C 
ATOM     17  C   UNL     1       6.248  56.060  10.638  0.00  0.00    +0.156 C 
ENDBRANCH   7   8
ENDBRANCH   3   4
BRANCH   1  28
ATOM     28  C   UNL     1       1.712  63.593  13.779  0.00  0.00    -0.031 A 
ATOM     29  C   UNL     1       1.366  63.170  15.050  0.00  0.00    -0.027 A 
ATOM     30  C   UNL     1       0.143  63.588  15.608  0.00  0.00    +0.001 A 
ATOM     31  C   UNL     1      -0.705  64.444  14.884  0.00  0.00    +0.099 A 
ATOM     46  C   UNL     1      -0.379  64.798  13.618  0.00  0.00    +0.114 A 
ATOM     49  C   UNL     1       0.831  64.381  13.054  0.00  0.00    +0.012 A 
BRANCH  31  32
ATOM     32  N   UNL     1      -1.957  64.822  15.398  0.00  0.00    -0.233 N 
ATOM     33  H   UNL     1      -2.772  64.680  14.836  0.00  0.00    +0.224 HD
ATOM     34  C   UNL     1      -2.098  65.362  16.606  0.00  0.00    +0.253 C 
ATOM     35  O   UNL     1      -1.142  65.574  17.341  0.00  0.00    -0.373 OA
BRANCH  34  36
ATOM     36  C   UNL     1      -3.492  65.673  17.087  0.00  0.00    +0.140 A 
ATOM     37  C   UNL     1      -4.661  65.028  16.674  0.00  0.00    +0.001 A 
ATOM     38  C   UNL     1      -5.649  65.657  17.392  0.00  0.00    -0.018 A 
ATOM     39  C   UNL     1      -7.013  65.378  17.338  0.00  0.00    -0.016 A 
ATOM     40  C   UNL     1      -7.917  66.098  18.144  0.00  0.00    -0.024 A 
ATOM     41  C   UNL     1      -7.453  67.083  18.986  0.00  0.00    -0.019 A 
ATOM     42  C   UNL     1      -6.095  67.358  19.018  0.00  0.00    +0.015 A 
ATOM     43  C   UNL     1      -5.201  66.608  18.207  0.00  0.00    +0.070 A 
ATOM     44  N   UNL     1      -3.851  66.641  18.036  0.00  0.00    -0.255 N 
ATOM     45  C   UNL     1      -2.935  67.551  18.727  0.00  0.00    +0.210 C 
ENDBRANCH  34  36
ENDBRANCH  31  32
BRANCH  46  47
ATOM     47  O   UNL     1      -1.218  65.577  12.908  0.00  0.00    -0.327 OA
ATOM     48  C   UNL     1      -0.788  66.122  11.670  0.00  0.00    +0.228 C 
ENDBRANCH  46  47
ENDBRANCH   1  28
TORSDOF 6
