REMARK  Name = 2X1N
REMARK  3 active torsions:
REMARK  status: ('A' for Active; 'I' for Inactive)
REMARK    1  A    between atoms: N_2  and  C_4
REMARK    2  A    between atoms: C_9  and  N_10
REMARK    3  A    between atoms: C_16  and  C_17
REMARK                            x       y       z     vdW  Elec       q    Type
REMARK                         _______ _______ _______ _____ _____    ______ ____
ROOT
ATOM      8  N   UNL     1       0.869  51.346   3.548  0.00  0.00    -0.213 NA
ATOM      9  C   UNL     1       2.114  50.982   3.268  0.00  0.00    +0.229 A 
ATOM     10  N   UNL     1       3.045  51.930   3.414  0.00  0.00    -0.220 NA
ATOM     11  C   UNL     1       4.317  51.781   3.109  0.00  0.00    +0.120 A 
ATOM     12  C   UNL     1       4.705  50.533   2.638  0.00  0.00    -0.004 A 
ATOM     13  C   UNL     1       6.191  50.334   2.360  0.00  0.00    +0.045 C 
ATOM     14  C   UNL     1       6.479  49.204   1.388  0.00  0.00    +0.061 C 
ATOM     15  C   UNL     1       5.425  48.105   1.483  0.00  0.00    +0.058 A 
ATOM     16  N   UNL     1       5.659  46.874   1.006  0.00  0.00    -0.249 NA
ATOM     17  C   UNL     1       4.678  45.981   1.107  0.00  0.00    +0.076 A 
ATOM     18  C   UNL     1       4.594  44.637   0.733  0.00  0.00    +0.074 C 
ATOM     19  S   UNL     1       3.390  46.826   1.826  0.00  0.00    -0.071 S 
ATOM     20  C   UNL     1       4.151  48.315   2.008  0.00  0.00    +0.059 A 
ATOM     21  C   UNL     1       3.742  49.551   2.499  0.00  0.00    +0.062 A 
ATOM     22  N   UNL     1       2.466  49.792   2.796  0.00  0.00    -0.323 N 
ATOM     23  H   UNL     1       1.728  49.030   2.655  0.00  0.00    +0.169 HD
ENDROOT
BRANCH   8   7
ATOM      3  C   UNL     1      -1.489  48.776   2.485  0.00  0.00    +0.128 A 
ATOM      4  C   UNL     1      -2.637  49.179   3.176  0.00  0.00    +0.033 A 
ATOM      5  C   UNL     1      -2.608  50.305   3.986  0.00  0.00    +0.004 A 
ATOM      6  C   UNL     1      -1.411  51.005   4.064  0.00  0.00    +0.028 A 
ATOM      7  C   UNL     1      -0.247  50.613   3.377  0.00  0.00    +0.070 A 
ATOM     24  C   UNL     1      -0.293  49.478   2.573  0.00  0.00    +0.060 A 
BRANCH   3   2
ATOM      1  O   UNL     1      -0.402  47.307   0.916  0.00  0.00    -0.126 OA
ATOM      2  N   UNL     1      -1.522  47.668   1.746  0.00  0.00    +0.057 N 
ATOM     25  O   UNL     1      -2.688  46.797   1.793  0.00  0.00    -0.126 OA
ENDBRANCH   3   2
ENDBRANCH   8   7
TORSDOF 2
