REMARK  Name = F37
REMARK  2 active torsions:
REMARK  status: ('A' for Active; 'I' for Inactive)
REMARK    1  A    between atoms: C1_6  and  C4_8
REMARK    2  A    between atoms: C7_13  and  C10_14
REMARK                            x       y       z     vdW  Elec       q    Type
REMARK                         _______ _______ _______ _____ _____    ______ ____
ROOT
ATOM      5  C   UNL     1       6.709  38.565   7.802  0.00  0.00    -0.002 A 
ATOM      6  C   UNL     1       7.341  39.389   8.742  0.00  0.00    -0.003 A 
ATOM      7  C   UNL     1       7.381  39.043  10.110  0.00  0.00    +0.003 A 
ATOM      8  C   UNL     1       6.838  37.825  10.583  0.00  0.00    +0.036 A 
ATOM     20  C   UNL     1       6.184  36.998   9.635  0.00  0.00    +0.003 A 
ATOM     21  C   UNL     1       6.122  37.374   8.273  0.00  0.00    -0.003 A 
ENDROOT
BRANCH   8   9
ATOM      9  C   UNL     1       6.836  37.499  11.966  0.00  0.00    +0.165 A 
ATOM     10  N   UNL     1       7.606  38.220  12.890  0.00  0.00    -0.189 NA
ATOM     11  C   UNL     1       7.582  37.971  14.253  0.00  0.00    +0.282 A 
ATOM     12  O   UNL     1       8.322  38.637  14.974  0.00  0.00    -0.265 OA
ATOM     13  C   UNL     1       6.692  36.994  14.741  0.00  0.00    +0.076 A 
ATOM     14  C   UNL     1       6.607  36.682  16.092  0.00  0.00    +0.006 A 
ATOM     15  C   UNL     1       5.734  35.657  16.505  0.00  0.00    +0.000 A 
ATOM     16  C   UNL     1       4.977  34.948  15.558  0.00  0.00    +0.002 A 
ATOM     17  C   UNL     1       5.087  35.266  14.206  0.00  0.00    +0.019 A 
ATOM     18  C   UNL     1       5.961  36.267  13.789  0.00  0.00    +0.088 A 
ATOM     19  N   UNL     1       6.014  36.554  12.459  0.00  0.00    -0.226 NA
ENDBRANCH   8   9
BRANCH   5   4
ATOM      1  O   UNL     1       5.204  37.432   3.644  0.00  0.00    -0.205 OA
ATOM      2  C   UNL     1       5.946  37.870   4.522  0.00  0.00    +0.228 C 
ATOM      3  N   UNL     1       5.494  38.397   5.658  0.00  0.00    -0.152 NA
ATOM      4  C   UNL     1       6.643  38.929   6.395  0.00  0.00    +0.130 C 
ATOM     22  C   UNL     1       6.448  40.439   6.183  0.00  0.00    +0.029 C 
ATOM     23  C   UNL     1       7.854  38.450   5.623  0.00  0.00    +0.164 C 
ATOM     24  N   UNL     1       7.267  37.868   4.418  0.00  0.00    -0.187 NA
ENDBRANCH   5   4
TORSDOF 2
