REMARK  Name = 5KCV
REMARK  5 active torsions:
REMARK  status: ('A' for Active; 'I' for Inactive)
REMARK    1  A    between atoms: C_1  and  C_5
REMARK    2  A    between atoms: C_2  and  N_16
REMARK    3  A    between atoms: C_5  and  N_14
REMARK    4  A    between atoms: C_18  and  C_19
REMARK    5  A    between atoms: C_28  and  C_29
REMARK                            x       y       z     vdW  Elec       q    Type
REMARK                         _______ _______ _______ _____ _____    ______ ____
ROOT
ATOM      5  N   UNL     1      -7.937  -1.030 -16.844  0.00  0.00    -0.277 N 
ATOM      6  C   UNL     1      -7.190  -1.838 -16.062  0.00  0.00    +0.151 A 
ATOM     16  N   UNL     1      -6.108  -2.182 -16.748  0.00  0.00    -0.225 NA
ATOM     17  C   UNL     1      -6.176  -1.600 -17.951  0.00  0.00    +0.109 A 
ATOM     18  C   UNL     1      -5.329  -1.602 -18.992  0.00  0.00    +0.034 A 
ATOM     19  C   UNL     1      -5.651  -0.907 -20.154  0.00  0.00    +0.030 A 
ATOM     20  C   UNL     1      -6.869  -0.214 -20.192  0.00  0.00    +0.073 A 
ATOM     27  N   UNL     1      -7.668  -0.261 -19.118  0.00  0.00    -0.227 NA
ATOM     28  C   UNL     1      -7.311  -0.921 -18.013  0.00  0.00    +0.166 A 
ENDROOT
BRANCH   6   7
ATOM      7  C   UNL     1      -7.443  -2.241 -14.801  0.00  0.00    +0.057 A 
ATOM      8  C   UNL     1      -7.936  -1.300 -13.911  0.00  0.00    +0.016 A 
ATOM      9  C   UNL     1      -8.200  -1.603 -12.593  0.00  0.00    +0.020 A 
ATOM     10  C   UNL     1      -7.989  -2.918 -12.190  0.00  0.00    +0.113 A 
ATOM     11  N   UNL     1      -7.498  -3.895 -13.083  0.00  0.00    -0.240 NA
ATOM     12  C   UNL     1      -7.218  -3.543 -14.336  0.00  0.00    +0.127 A 
ATOM     13  N   UNL     1      -6.750  -4.450 -15.185  0.00  0.00    -0.343 N 
ATOM     14  H   UNL     1      -6.570  -5.451 -14.853  0.00  0.00    +0.144 HD
ATOM     15  H   UNL     1      -6.553  -4.180 -16.201  0.00  0.00    +0.144 HD
ENDBRANCH   6   7
BRANCH   5   4
ATOM      1  C   UNL     1     -11.893   0.298 -16.455  0.00  0.00    -0.023 A 
ATOM      2  C   UNL     1     -10.881   1.159 -16.881  0.00  0.00    +0.008 A 
ATOM      3  C   UNL     1      -9.555   0.758 -17.010  0.00  0.00    +0.026 A 
ATOM      4  C   UNL     1      -9.184  -0.525 -16.676  0.00  0.00    +0.050 A 
ATOM     29  C   UNL     1     -10.196  -1.387 -16.286  0.00  0.00    +0.026 A 
ATOM     37  C   UNL     1     -11.500  -0.985 -16.164  0.00  0.00    +0.008 A 
BRANCH   1  30
ATOM     30  C   UNL     1     -13.272   0.654 -16.271  0.00  0.00    +0.064 C 
ATOM     34  C   UNL     1     -13.751   1.998 -16.764  0.00  0.00    -0.004 C 
ATOM     35  C   UNL     1     -14.357   1.418 -17.973  0.00  0.00    -0.027 C 
ATOM     36  C   UNL     1     -14.218   0.051 -17.303  0.00  0.00    +0.058 C 
BRANCH  30  31
ATOM     31  N   UNL     1     -13.686   0.455 -14.887  0.00  0.00    -0.318 NA
ATOM     32  H   UNL     1     -13.560  -0.574 -14.621  0.00  0.00    +0.119 HD
ATOM     33  H   UNL     1     -13.087   1.065 -14.244  0.00  0.00    +0.119 HD
ENDBRANCH  30  31
ENDBRANCH   1  30
ENDBRANCH   5   4
BRANCH  20  21
ATOM     21  C   UNL     1      -7.274   0.528 -21.299  0.00  0.00    +0.000 A 
ATOM     22  C   UNL     1      -6.867   0.203 -22.601  0.00  0.00    +0.010 A 
ATOM     23  C   UNL     1      -7.289   1.003 -23.664  0.00  0.00    +0.001 A 
ATOM     24  C   UNL     1      -8.107   2.113 -23.460  0.00  0.00    +0.000 A 
ATOM     25  C   UNL     1      -8.513   2.417 -22.158  0.00  0.00    +0.001 A 
ATOM     26  C   UNL     1      -8.092   1.646 -21.084  0.00  0.00    +0.010 A 
ENDBRANCH  20  21
TORSDOF 5
