REMARK  Name = 3cqu_ligand
REMARK  3 active torsions:
REMARK  status: ('A' for Active; 'I' for Inactive)
REMARK    1  A    between atoms: N3_1  and  C7_2
REMARK    2  A    between atoms: C21_5  and  C22_9
REMARK    3  A    between atoms: C14_13  and  C12_14
REMARK                            x       y       z     vdW  Elec       q    Type
REMARK                         _______ _______ _______ _____ _____    ______ ____
ROOT
ATOM     13  C   UNL     1       6.013   4.565  18.105  0.00  0.00    +0.077 A 
ATOM     14  C   UNL     1       6.799   3.751  18.954  0.00  0.00    +0.024 A 
ATOM     15  C   UNL     1       7.862   4.336  19.636  0.00  0.00    -0.002 A 
ATOM     16  C   UNL     1       8.169   5.672  19.516  0.00  0.00    -0.020 A 
ATOM     17  C   UNL     1       7.387   6.443  18.708  0.00  0.00    -0.012 A 
ATOM     25  C   UNL     1       6.345   5.900  18.001  0.00  0.00    +0.018 A 
ENDROOT
BRANCH  13   1
ATOM      1  N   UNL     1       4.939   3.980  17.413  0.00  0.00    -0.252 N 
ATOM      2  H   UNL     1       4.977   2.959  17.282  0.00  0.00    +0.220 HD
ATOM      3  C   UNL     1       3.822   4.637  16.882  0.00  0.00    +0.139 A 
ATOM      4  N   UNL     1       3.702   5.960  16.774  0.00  0.00    -0.269 NA
ATOM      5  C   UNL     1       2.640   6.518  16.200  0.00  0.00    +0.149 A 
ATOM      6  N   UNL     1       1.590   5.856  15.764  0.00  0.00    -0.276 NA
ATOM      7  C   UNL     1       1.576   4.529  15.836  0.00  0.00    +0.137 A 
ATOM      8  N   UNL     1       0.662   3.587  15.523  0.00  0.00    -0.266 N 
ATOM      9  H   UNL     1      -0.256   3.775  15.095  0.00  0.00    +0.232 HD
ATOM     10  C   UNL     1       1.129   2.352  15.856  0.00  0.00    +0.118 A 
ATOM     11  C   UNL     1       2.359   2.473  16.387  0.00  0.00    -0.023 A 
ATOM     12  C   UNL     1       2.696   3.872  16.419  0.00  0.00    +0.047 A 
ENDBRANCH  13   1
BRANCH  14  18
ATOM     18  C   UNL     1       6.558   2.281  19.095  0.00  0.00    +0.084 A 
ATOM     19  N   UNL     1       5.884   1.472  18.290  0.00  0.00    -0.203 NA
ATOM     20  N   UNL     1       5.876   0.238  18.727  0.00  0.00    -0.193 N 
ATOM     21  H   UNL     1       5.420  -0.572  18.283  0.00  0.00    +0.259 HD
ATOM     22  C   UNL     1       6.567   0.239  19.847  0.00  0.00    +0.137 A 
ATOM     23  C   UNL     1       6.874  -0.895  20.759  0.00  0.00    +0.167 C 
ATOM     24  N   UNL     1       7.008   1.485  20.100  0.00  0.00    -0.294 NA
ENDBRANCH  14  18
TORSDOF 2
