REMARK  Name = 4ZSG
REMARK  4 active torsions:
REMARK  status: ('A' for Active; 'I' for Inactive)
REMARK    1  A    between atoms: C_1  and  C_2
REMARK    2  A    between atoms: C_1  and  N_19
REMARK    3  A    between atoms: C_1  and  C_20
REMARK    4  A    between atoms: C_10  and  N_11
REMARK                            x       y       z     vdW  Elec       q    Type
REMARK                         _______ _______ _______ _____ _____    ______ ____
ROOT
ATOM      3  N   UNL     1      -3.626 -37.627  -3.081  0.00  0.00    -0.293 N 
ATOM      4  H   UNL     1      -4.300 -37.237  -2.430  0.00  0.00    +0.151 HD
ATOM      5  C   UNL     1      -3.441 -37.095  -4.300  0.00  0.00    +0.338 C 
ATOM      6  O   UNL     1      -2.714 -37.575  -5.160  0.00  0.00    -0.248 OA
ATOM      7  N   UNL     1      -4.141 -35.886  -4.549  0.00  0.00    -0.148 N 
ATOM      8  N   UNL     1      -5.001 -35.285  -3.643  0.00  0.00    -0.124 NA
ATOM      9  C   UNL     1      -5.405 -34.213  -4.300  0.00  0.00    +0.234 A 
ATOM     10  N   UNL     1      -6.262 -33.318  -3.801  0.00  0.00    -0.326 N 
ATOM     11  H   UNL     1      -6.602 -33.432  -2.852  0.00  0.00    +0.145 HD
ATOM     12  H   UNL     1      -6.543 -32.505  -4.339  0.00  0.00    +0.145 HD
ATOM     13  N   UNL     1      -4.888 -34.068  -5.569  0.00  0.00    -0.180 NA
ATOM     14  C   UNL     1      -4.126 -35.147  -5.685  0.00  0.00    +0.228 A 
ATOM     15  N   UNL     1      -3.368 -35.511  -6.759  0.00  0.00    -0.283 N 
ATOM     16  H   UNL     1      -2.842 -36.376  -6.689  0.00  0.00    +0.155 HD
ENDROOT
BRANCH  15  17
ATOM     17  C   UNL     1      -3.188 -34.814  -7.979  0.00  0.00    +0.034 A 
ATOM     18  C   UNL     1      -2.344 -35.386  -8.927  0.00  0.00    +0.025 A 
ATOM     19  C   UNL     1      -2.146 -34.771 -10.146  0.00  0.00    +0.022 A 
ATOM     20  C   UNL     1      -2.787 -33.585 -10.412  0.00  0.00    +0.041 A 
ATOM     21 CL   UNL     1      -2.499 -32.788 -11.927  0.00  0.00    -0.084 Cl
ATOM     22  C   UNL     1      -3.634 -33.004  -9.496  0.00  0.00    +0.022 A 
ATOM     23  C   UNL     1      -3.827 -33.616  -8.272  0.00  0.00    +0.025 A 
ENDBRANCH  15  17
BRANCH   3   1
ATOM      1  C   UNL     1      -2.872 -38.803  -2.639  0.00  0.00    +0.068 C 
ATOM      2  C   UNL     1      -1.570 -38.370  -2.012  0.00  0.00    +0.027 C 
ATOM     24  C   UNL     1      -3.709 -39.641  -1.702  0.00  0.00    +0.027 C 
ENDBRANCH   3   1
TORSDOF 2
