REMARK  Name = 4YJT
REMARK  7 active torsions:
REMARK  status: ('A' for Active; 'I' for Inactive)
REMARK    1  A    between atoms: C_3  and  N_4
REMARK    2  A    between atoms: N_4  and  C_5
REMARK    3  A    between atoms: N_4  and  C_14
REMARK    4  A    between atoms: C_14  and  C_15
REMARK    5  A    between atoms: N_20  and  C_21
REMARK    6  A    between atoms: S_24  and  O_25
REMARK    7  A    between atoms: S_24  and  O_26
REMARK                            x       y       z     vdW  Elec       q    Type
REMARK                         _______ _______ _______ _____ _____    ______ ____
ROOT
ATOM      1  F   UNL     1      30.992  38.015  33.338  0.00  0.00    -0.200 F 
ATOM      2  C   UNL     1      32.157  38.632  33.606  0.00  0.00    +0.181 A 
ATOM      3  C   UNL     1      32.267  39.390  34.758  0.00  0.00    +0.156 A 
ATOM      4  N   UNL     1      33.415  39.976  35.056  0.00  0.00    -0.220 NA
ATOM      5  C   UNL     1      34.469  39.827  34.240  0.00  0.00    +0.221 A 
ATOM      6  N   UNL     1      35.627  40.473  34.657  0.00  0.00    -0.283 N 
ATOM      7  H   UNL     1      35.518  41.012  35.444  0.00  0.00    +0.155 HD
ATOM     22  N   UNL     1      34.435  39.143  33.105  0.00  0.00    -0.196 NA
ATOM     23  C   UNL     1      33.286  38.549  32.762  0.00  0.00    +0.166 A 
ENDROOT
BRANCH   6   8
ATOM      8  C   UNL     1      36.914  40.502  34.067  0.00  0.00    +0.035 A 
ATOM      9  C   UNL     1      37.870  41.361  34.642  0.00  0.00    +0.024 A 
ATOM     10  C   UNL     1      39.148  41.466  34.129  0.00  0.00    +0.008 A 
ATOM     11  C   UNL     1      39.511  40.737  32.997  0.00  0.00    -0.008 A 
ATOM     12  C   UNL     1      40.834  40.728  32.261  0.00  0.00    +0.140 C 
ATOM     13  N   UNL     1      40.770  39.794  31.114  0.00  0.00    -0.210 NA
ATOM     14  H   UNL     1      41.507  39.614  30.510  0.00  0.00    +0.146 HD
ATOM     15  S   UNL     1      39.258  39.098  31.002  0.00  0.00    -0.108 S 
ATOM     20  C   UNL     1      38.569  39.919  32.400  0.00  0.00    +0.082 A 
ATOM     21  C   UNL     1      37.284  39.807  32.904  0.00  0.00    +0.050 A 
BRANCH  15  16
ATOM     16  O   UNL     1      39.308  37.707  31.236  0.00  0.00    -0.280 OA
ATOM     17  H   UNL     1      39.905  37.514  32.078  0.00  0.00    +0.242 HD
ENDBRANCH  15  16
BRANCH  15  18
ATOM     18  O   UNL     1      38.562  39.468  29.815  0.00  0.00    -0.280 OA
ATOM     19  H   UNL     1      37.551  39.200  29.904  0.00  0.00    +0.242 HD
ENDBRANCH  15  18
ENDBRANCH   6   8
BRANCH  23  24
ATOM     24  N   UNL     1      33.296  37.789  31.604  0.00  0.00    -0.282 N 
BRANCH  24  27
ATOM     27  C   UNL     1      32.087  37.554  30.875  0.00  0.00    +0.046 A 
ATOM     28  C   UNL     1      31.369  38.535  30.234  0.00  0.00    +0.024 A 
ATOM     29  C   UNL     1      30.232  38.238  29.501  0.00  0.00    +0.004 A 
ATOM     30  C   UNL     1      29.754  36.947  29.370  0.00  0.00    +0.028 A 
ATOM     31  C   UNL     1      30.450  35.938  30.049  0.00  0.00    +0.068 A 
ATOM     32  N   UNL     1      30.308  34.591  30.157  0.00  0.00    -0.277 N 
ATOM     33  H   UNL     1      29.619  34.107  29.720  0.00  0.00    +0.189 HD
ATOM     34  N   UNL     1      31.292  34.037  30.923  0.00  0.00    -0.181 NA
ATOM     35  C   UNL     1      32.074  35.009  31.302  0.00  0.00    +0.144 A 
ATOM     36  C   UNL     1      31.640  36.229  30.740  0.00  0.00    +0.041 A 
ENDBRANCH  24  27
BRANCH  24  25
ATOM     25  C   UNL     1      34.570  37.544  30.869  0.00  0.00    +0.109 C 
ATOM     26  C   UNL     1      35.536  36.645  31.653  0.00  0.00    +0.025 C 
ENDBRANCH  24  25
ENDBRANCH  23  24
TORSDOF 6
