REMARK  Name = 4X0M
REMARK  1 active torsions:
REMARK  status: ('A' for Active; 'I' for Inactive)
REMARK    1  A    between atoms: C_8  and  N_12
REMARK                            x       y       z     vdW  Elec       q    Type
REMARK                         _______ _______ _______ _____ _____    ______ ____
ROOT
ATOM      1  C   UNL     1      17.429  69.268   3.960  0.00  0.00    +0.103 A 
ATOM      2  C   UNL     1      16.719  69.497   2.744  0.00  0.00    +0.132 A 
ATOM      6  N   UNL     1      17.400  69.998   1.695  0.00  0.00    -0.220 NA
ATOM      7  C   UNL     1      18.679  70.304   1.803  0.00  0.00    +0.225 A 
ATOM      8  N   UNL     1      19.383  70.171   2.926  0.00  0.00    -0.218 NA
ATOM      9  C   UNL     1      16.834  68.627   5.159  0.00  0.00    +0.194 A 
ATOM     10  O   UNL     1      15.689  68.208   5.173  0.00  0.00    -0.287 OA
ATOM     11  C   UNL     1      17.651  68.476   6.316  0.00  0.00    +0.069 A 
ATOM     12  C   UNL     1      18.930  68.899   6.293  0.00  0.00    +0.088 A 
ATOM     13  N   UNL     1      19.504  69.441   5.182  0.00  0.00    -0.345 N 
ATOM     14  H   UNL     1      20.532  69.736   5.224  0.00  0.00    +0.167 HD
ATOM     15  C   UNL     1      18.810  69.622   4.009  0.00  0.00    +0.147 A 
ENDROOT
BRANCH   2   3
ATOM      3  N   UNL     1      15.411  69.086   2.587  0.00  0.00    -0.342 N 
ATOM      4  H   UNL     1      14.900  69.269   1.665  0.00  0.00    +0.144 HD
ATOM      5  H   UNL     1      14.908  68.584   3.387  0.00  0.00    +0.144 HD
ENDBRANCH   2   3
TORSDOF 1
