REMARK  Name = 3u8w_ligand
REMARK  7 active torsions:
REMARK  status: ('A' for Active; 'I' for Inactive)
REMARK    1  A    between atoms: C22_3  and  N5_4
REMARK    2  A    between atoms: C21_5  and  C11_7
REMARK    3  A    between atoms: C14_11  and  C20_12
REMARK    4  A    between atoms: C9_13  and  C4_14
REMARK    5  A    between atoms: N4_18  and  C7_19
REMARK    6  A    between atoms: C7_19  and  C8_20
REMARK    7  A    between atoms: C2_25  and  C6_26
REMARK                            x       y       z     vdW  Elec       q    Type
REMARK                         _______ _______ _______ _____ _____    ______ ____
ROOT
ATOM     11  C   UNL     1       2.570 -30.230 -30.578  0.00  0.00    +0.066 A 
ATOM     12  C   UNL     1       1.572 -29.623 -31.348  0.00  0.00    +0.237 A 
ATOM     13  N   UNL     1       0.291 -30.258 -31.515  0.00  0.00    -0.137 N 
ATOM     14  N   UNL     1       0.033 -31.351 -30.963  0.00  0.00    -0.102 N 
ATOM     15  C   UNL     1      -1.069 -32.243 -30.893  0.00  0.00    +0.188 A 
ATOM     24  N   UNL     1      -0.702 -33.269 -30.131  0.00  0.00    -0.243 NA
ATOM     25  N   UNL     1       0.454 -33.134 -29.720  0.00  0.00    -0.244 NA
ATOM     26  C   UNL     1       0.999 -32.000 -30.167  0.00  0.00    +0.181 A 
ATOM     29  O   UNL     1       1.811 -28.543 -31.893  0.00  0.00    -0.381 OA
ATOM     30  C   UNL     1       2.264 -31.442 -29.966  0.00  0.00    +0.089 A 
ENDROOT
BRANCH  15  16
ATOM     16  C   UNL     1      -2.327 -32.100 -31.501  0.00  0.00    +0.085 A 
ATOM     17  C   UNL     1      -2.576 -32.657 -32.755  0.00  0.00    +0.151 A 
ATOM     18  F   UNL     1      -1.596 -33.312 -33.394  0.00  0.00    -0.178 F 
ATOM     19  C   UNL     1      -3.824 -32.525 -33.363  0.00  0.00    +0.038 A 
ATOM     20  C   UNL     1      -4.851 -31.842 -32.715  0.00  0.00    +0.003 A 
ATOM     21  C   UNL     1      -4.619 -31.288 -31.460  0.00  0.00    +0.012 A 
ATOM     22  C   UNL     1      -3.368 -31.421 -30.851  0.00  0.00    +0.056 A 
ATOM     23 CL   UNL     1      -3.141 -30.706 -29.293  0.00  0.00    -0.067 Cl
ENDBRANCH  15  16
BRANCH  11  10
ATOM      6  C   UNL     1       5.111 -28.108 -28.959  0.00  0.00    +0.045 A 
ATOM      7  C   UNL     1       6.226 -28.292 -29.780  0.00  0.00    +0.019 A 
ATOM      8  C   UNL     1       6.142 -29.136 -30.890  0.00  0.00    +0.005 A 
ATOM      9  C   UNL     1       4.950 -29.800 -31.196  0.00  0.00    -0.029 A 
ATOM     10  C   UNL     1       3.822 -29.621 -30.377  0.00  0.00    +0.004 A 
ATOM     31  C   UNL     1       4.924 -30.706 -32.430  0.00  0.00    +0.098 C 
ATOM     32  C   UNL     1       3.924 -28.773 -29.271  0.00  0.00    +0.029 A 
BRANCH   6   5
ATOM      3  N   UNL     1       6.154 -26.311 -27.645  0.00  0.00    -0.284 N 
ATOM      4  H   UNL     1       6.837 -26.322 -28.375  0.00  0.00    +0.185 HD
ATOM      5  C   UNL     1       5.137 -27.185 -27.721  0.00  0.00    +0.201 C 
ATOM     33  O   UNL     1       4.248 -27.282 -26.878  0.00  0.00    -0.388 OA
BRANCH   3   2
ATOM      1  C   UNL     1       7.705 -25.273 -25.872  0.00  0.00    +0.030 C 
ATOM      2  C   UNL     1       6.328 -25.330 -26.545  0.00  0.00    +0.097 C 
ATOM     34  C   UNL     1       6.520 -25.887 -25.130  0.00  0.00    +0.030 C 
ENDBRANCH   3   2
ENDBRANCH   6   5
ENDBRANCH  11  10
BRANCH  13  27
ATOM     27  C   UNL     1      -0.727 -29.565 -32.357  0.00  0.00    +0.173 C 
ATOM     28  C   UNL     1      -0.578 -29.931 -33.838  0.00  0.00    +0.033 C 
ENDBRANCH  13  27
TORSDOF 5
