REMARK  Name = 5W5O
REMARK  11 active torsions:
REMARK  status: ('A' for Active; 'I' for Inactive)
REMARK    1  A    between atoms: C_3  and  C_4
REMARK    2  A    between atoms: C_3  and  O_22
REMARK    3  A    between atoms: C_4  and  N_23
REMARK    4  A    between atoms: C_5  and  C_19
REMARK    5  A    between atoms: C_14  and  N_24
REMARK    6  A    between atoms: C_16  and  O_22
REMARK    7  A    between atoms: C_17  and  S_28
REMARK    8  A    between atoms: S_28  and  C_31
REMARK    9  A    between atoms: C_31  and  C_32
REMARK   10  A    between atoms: C_31  and  C_33
REMARK   11  A    between atoms: C_31  and  C_34
REMARK                            x       y       z     vdW  Elec       q    Type
REMARK                         _______ _______ _______ _____ _____    ______ ____
ROOT
ATOM      1  C   UNL     1       1.915  15.133  93.461  0.00  0.00    +0.118 A 
ATOM      2  N   UNL     1       3.141  14.916  93.359  0.00  0.00    -0.239 NA
ATOM      3  C   UNL     1       3.888  16.026  93.884  0.00  0.00    +0.139 A 
ATOM      4  C   UNL     1       2.893  16.883  94.215  0.00  0.00    +0.069 A 
ATOM     15  N   UNL     1       1.718  16.304  93.996  0.00  0.00    -0.321 N 
ATOM     16  C   UNL     1       0.512  16.796  94.169  0.00  0.00    +0.181 C 
ATOM     17  C   UNL     1      -0.597  16.081  93.864  0.00  0.00    +0.123 C 
ATOM     25  C   UNL     1      -0.443  14.690  93.293  0.00  0.00    +0.127 C 
ATOM     36  C   UNL     1       0.809  14.239  93.080  0.00  0.00    +0.149 C 
ENDROOT
BRANCH   4   5
ATOM      5  C   UNL     1       3.195  18.220  94.857  0.00  0.00    +0.006 A 
ATOM      6  C   UNL     1       4.292  18.965  94.405  0.00  0.00    +0.050 A 
ATOM      7  C   UNL     1       4.641  20.169  95.037  0.00  0.00    +0.132 A 
ATOM      8 CL   UNL     1       6.009  21.104  94.395  0.00  0.00    -0.062 Cl
ATOM      9  N   UNL     1       3.908  20.582  96.122  0.00  0.00    -0.221 NA
ATOM     10  C   UNL     1       2.835  19.884  96.592  0.00  0.00    +0.118 A 
ATOM     11  N   UNL     1       2.134  20.348  97.656  0.00  0.00    -0.343 N 
ATOM     12  H   UNL     1       2.418  21.268  98.124  0.00  0.00    +0.144 HD
ATOM     13  H   UNL     1       1.297  19.794  98.028  0.00  0.00    +0.144 HD
ATOM     14  C   UNL     1       2.472  18.679  95.971  0.00  0.00    +0.053 A 
ENDBRANCH   4   5
BRANCH  17  18
ATOM     18  S   UNL     1      -2.146  16.899  94.101  0.00  0.00    +0.003 S 
ATOM     23  O   UNL     1      -3.102  16.409  93.100  0.00  0.00    -0.169 OA
ATOM     24  O   UNL     1      -1.896  18.339  94.081  0.00  0.00    -0.169 OA
BRANCH  18  19
ATOM     19  C   UNL     1      -2.757  16.454  95.764  0.00  0.00    +0.084 C 
ATOM     20  C   UNL     1      -2.896  14.925  95.936  0.00  0.00    +0.035 C 
ATOM     21  C   UNL     1      -4.162  17.098  95.864  0.00  0.00    +0.035 C 
ATOM     22  C   UNL     1      -1.874  17.022  96.908  0.00  0.00    +0.035 C 
ENDBRANCH  18  19
ENDBRANCH  17  18
BRANCH  25  26
ATOM     26  O   UNL     1      -1.529  13.950  92.983  0.00  0.00    -0.493 OA
BRANCH  26  27
ATOM     27  C   UNL     1      -1.471  12.614  92.437  0.00  0.00    +0.244 C 
BRANCH  27  28
ATOM     28  C   UNL     1      -2.720  12.534  91.519  0.00  0.00    +0.125 C 
BRANCH  28  29
ATOM     29  N   UNL     1      -4.034  12.328  92.220  0.00  0.00    -0.297 NA
ATOM     30  C   UNL     1      -4.975  11.383  91.557  0.00  0.00    +0.100 C 
ATOM     31  C   UNL     1      -6.158  12.107  90.844  0.00  0.00    +0.099 C 
ATOM     32  N   UNL     1      -6.760  13.164  91.711  0.00  0.00    -0.303 NA
ATOM     33  C   UNL     1      -8.064  13.704  91.249  0.00  0.00    +0.105 C 
ATOM     34  C   UNL     1      -5.802  14.182  92.229  0.00  0.00    +0.099 C 
ATOM     35  C   UNL     1      -4.705  13.411  93.021  0.00  0.00    +0.100 C 
ENDBRANCH  28  29
ENDBRANCH  27  28
ENDBRANCH  26  27
ENDBRANCH  25  26
TORSDOF 7
