REMARK  Name = 1AJ
REMARK  0 active torsions:
REMARK  status: ('A' for Active; 'I' for Inactive)
REMARK                            x       y       z     vdW  Elec       q    Type
REMARK                         _______ _______ _______ _____ _____    ______ ____
ROOT
ATOM      1  C   UNL     1     -12.682  -6.343   0.138  0.00  0.00    +0.070 C 
ATOM      2  N   UNL     1     -11.269  -6.553   0.185  0.00  0.00    -0.235 N 
ATOM      3  C   UNL     1     -10.888  -7.434   1.296  0.00  0.00    +0.329 C 
ATOM      4  O   UNL     1     -11.883  -7.866   1.971  0.00  0.00    -0.249 OA
ATOM      5  N   UNL     1      -9.474  -7.838   1.653  0.00  0.00    -0.241 N 
ATOM      6  C   UNL     1      -9.169  -8.686   2.677  0.00  0.00    +0.106 A 
ATOM      7  C   UNL     1      -7.782  -8.817   2.688  0.00  0.00    +0.120 A 
ATOM      8  N   UNL     1      -7.228  -8.037   1.742  0.00  0.00    -0.222 NA
ATOM      9  C   UNL     1      -8.284  -7.449   1.097  0.00  0.00    +0.186 A 
ATOM     10  C   UNL     1     -10.266  -5.915  -0.633  0.00  0.00    +0.127 C 
ATOM     11  C   UNL     1     -10.839  -4.763  -1.407  0.00  0.00    +0.005 A 
ATOM     12  C   UNL     1     -12.255  -4.501  -1.411  0.00  0.00    +0.028 A 
ATOM     13  S   UNL     1     -12.647  -3.277  -2.428  0.00  0.00    -0.087 S 
ATOM     14  C   UNL     1     -11.079  -2.879  -2.897  0.00  0.00    +0.035 A 
ATOM     15  C   UNL     1     -10.078  -3.775  -2.293  0.00  0.00    +0.005 A 
ATOM     16  C   UNL     1     -13.254  -5.308  -0.650  0.00  0.00    +0.022 C 
ENDROOT
TORSDOF 0
