REMARK  Name = DUY
REMARK  8 active torsions:
REMARK  status: ('A' for Active; 'I' for Inactive)
REMARK    1  A    between atoms: C1_1  and  C2_2
REMARK    2  A    between atoms: C3_3  and  O_21
REMARK    3  A    between atoms: C15_12  and  C16_13
REMARK    4  A    between atoms: C15_12  and  C21_18
REMARK    5  A    between atoms: C15_12  and  N3_29
REMARK    6  A    between atoms: O_21  and  C_22
REMARK    7  A    between atoms: CG_27  and  CB_28
REMARK    8  A    between atoms: CG_27  and  CD2_31
REMARK                            x       y       z     vdW  Elec       q    Type
REMARK                         _______ _______ _______ _____ _____    ______ ____
ROOT
ATOM      1  C   UNL     1     -14.806  37.309  -8.753  0.00  0.00    +0.244 C 
ATOM      2  N   UNL     1     -14.615  37.310  -7.363  0.00  0.00    -0.278 N 
ATOM      3  C   UNL     1     -14.960  38.498  -6.594  0.00  0.00    +0.094 C 
ATOM      4  C   UNL     1     -15.464  38.164  -5.217  0.00  0.00    +0.034 C 
ATOM      5  C   UNL     1     -14.496  37.291  -4.423  0.00  0.00    +0.092 C 
ATOM     25  C   UNL     1     -14.105  36.148  -5.431  0.00  0.00    +0.034 C 
ATOM     26  C   UNL     1     -13.537  36.605  -6.792  0.00  0.00    +0.094 C 
ATOM     27  O   UNL     1     -15.534  38.170  -9.252  0.00  0.00    -0.273 OA
ENDROOT
BRANCH   5   6
ATOM      6  C   UNL     1     -15.022  36.890  -3.036  0.00  0.00    -0.014 A 
ATOM      7  C   UNL     1     -15.253  37.864  -2.081  0.00  0.00    -0.003 A 
ATOM      8  C   UNL     1     -15.666  37.593  -0.774  0.00  0.00    +0.006 A 
ATOM      9  C   UNL     1     -15.855  36.260  -0.519  0.00  0.00    +0.035 A 
ATOM     10 BR   UNL     1     -16.458  35.900   1.310  0.00  0.00    -0.049 Br
ATOM     11  C   UNL     1     -15.655  35.211  -1.418  0.00  0.00    +0.006 A 
ATOM     12  C   UNL     1     -15.283  35.553  -2.698  0.00  0.00    -0.003 A 
ENDBRANCH   5   6
BRANCH   1  28
ATOM     28  C   UNL     1     -14.185  36.116  -9.520  0.00  0.00    +0.155 C 
ATOM     29  C   UNL     1     -12.785  36.293 -10.107  0.00  0.00    +0.031 C 
ATOM     30  C   UNL     1     -13.012  36.828 -11.520  0.00  0.00    +0.024 C 
ATOM     31  C   UNL     1     -14.430  36.357 -11.816  0.00  0.00    +0.097 C 
ATOM     32  N   UNL     1     -15.094  35.971 -10.617  0.00  0.00    -0.239 N 
ATOM     33  C   UNL     1     -16.420  35.511 -10.530  0.00  0.00    +0.405 C 
ATOM     39  O   UNL     1     -17.151  35.421 -11.504  0.00  0.00    -0.226 OA
BRANCH  33  34
ATOM     34  O   UNL     1     -16.868  35.181  -9.273  0.00  0.00    -0.442 OA
BRANCH  34  35
ATOM     35  C   UNL     1     -18.101  35.310  -8.919  0.00  0.00    +0.138 C 
ATOM     36  C   UNL     1     -18.259  35.166  -7.407  0.00  0.00    +0.044 C 
ATOM     37  C   UNL     1     -18.793  36.594  -9.370  0.00  0.00    +0.044 C 
ATOM     38  C   UNL     1     -18.936  34.153  -9.449  0.00  0.00    +0.044 C 
ENDBRANCH  34  35
ENDBRANCH  33  34
ENDBRANCH   1  28
BRANCH   5  13
ATOM     13  C   UNL     1     -13.371  38.242  -4.112  0.00  0.00    +0.245 C 
ATOM     14  O   UNL     1     -13.371  39.421  -3.749  0.00  0.00    -0.273 OA
ATOM     15  N   UNL     1     -12.069  38.055  -3.889  0.00  0.00    -0.195 NA
BRANCH  15  16
ATOM     16  CA  UNL     1     -10.842  37.487  -3.585  0.00  0.00    +0.198 C 
BRANCH  16  17
ATOM     17  C   UNL     1     -10.398  37.761  -2.150  0.00  0.00    +0.031 C 
ATOM     18  C   UNL     1     -11.433  38.058  -1.012  0.00  0.00    +0.002 C 
ATOM     19  C   UNL     1     -11.983  36.703  -0.567  0.00  0.00    +0.000 C 
ATOM     20  C   UNL     1     -10.834  35.738  -0.835  0.00  0.00    +0.000 C 
ATOM     21  C   UNL     1      -9.787  36.506  -1.643  0.00  0.00    +0.002 C 
ENDBRANCH  16  17
BRANCH  16  22
ATOM     22  C   UNL     1      -9.761  37.704  -4.588  0.00  0.00    +0.384 C 
ATOM     23  OXT UNL     1      -8.797  38.491  -4.333  0.00  0.00    -0.244 OA
ATOM     24  O   UNL     1      -9.947  36.851  -5.475  0.00  0.00    -0.244 OA
ENDBRANCH  16  22
ENDBRANCH  15  16
ENDBRANCH   5  13
TORSDOF 8
