REMARK  Name = 5BUJ
REMARK  2 active torsions:
REMARK  status: ('A' for Active; 'I' for Inactive)
REMARK    1  A    between atoms: C_1  and  C_19
REMARK    2  A    between atoms: C_7  and  N_16
REMARK                            x       y       z     vdW  Elec       q    Type
REMARK                         _______ _______ _______ _____ _____    ______ ____
ROOT
ATOM      1  C   UNL     1     -17.720   1.142  14.669  0.00  0.00    +0.098 A 
ATOM      8  N   UNL     1     -18.331   0.240  13.900  0.00  0.00    -0.173 NA
ATOM      9  N   UNL     1     -17.445  -0.177  12.963  0.00  0.00    -0.281 N 
ATOM     10  H   UNL     1     -17.656  -0.910  12.213  0.00  0.00    +0.189 HD
ATOM     11  C   UNL     1     -16.240   0.466  13.105  0.00  0.00    +0.043 A 
ATOM     12  C   UNL     1     -15.009   0.398  12.264  0.00  0.00    +0.074 C 
ATOM     13  C   UNL     1     -14.331   1.743  12.441  0.00  0.00    +0.111 C 
ATOM     14  N   UNL     1     -14.058   1.987  13.865  0.00  0.00    -0.325 N 
ATOM     15  C   UNL     1     -15.230   2.106  14.735  0.00  0.00    +0.144 C 
ATOM     24  C   UNL     1     -16.373   1.304  14.199  0.00  0.00    +0.018 A 
ENDROOT
BRANCH  14  16
ATOM     16  C   UNL     1     -12.759   2.079  14.428  0.00  0.00    +0.036 C 
ATOM     17  C   UNL     1     -11.653   1.604  13.724  0.00  0.00    +0.093 C 
ATOM     18  C   UNL     1     -10.319   1.770  14.203  0.00  0.00    +0.251 C 
ATOM     19  O   UNL     1      -9.291   1.426  13.600  0.00  0.00    -0.268 OA
ATOM     20  N   UNL     1     -10.204   2.389  15.419  0.00  0.00    -0.329 N 
ATOM     21  H   UNL     1      -9.222   2.538  15.818  0.00  0.00    +0.168 HD
ATOM     22  C   UNL     1     -11.261   2.824  16.147  0.00  0.00    +0.087 C 
ATOM     23  C   UNL     1     -12.525   2.703  15.691  0.00  0.00    +0.041 C 
ENDBRANCH  14  16
BRANCH   1   2
ATOM      2  C   UNL     1     -18.402   1.812  15.798  0.00  0.00    +0.005 A 
ATOM      3  C   UNL     1     -19.789   1.910  15.807  0.00  0.00    +0.030 A 
ATOM      4  C   UNL     1     -20.406   2.544  16.868  0.00  0.00    +0.111 A 
ATOM      5  N   UNL     1     -19.749   3.061  17.908  0.00  0.00    -0.263 NA
ATOM      6  C   UNL     1     -18.416   2.950  17.894  0.00  0.00    +0.111 A 
ATOM      7  C   UNL     1     -17.706   2.343  16.878  0.00  0.00    +0.030 A 
ENDBRANCH   1   2
TORSDOF 2
