REMARK  Name = 6Q3W
REMARK  1 active torsions:
REMARK  status: ('A' for Active; 'I' for Inactive)
REMARK    1  A    between atoms: C15_3  and  N17_23
REMARK                            x       y       z     vdW  Elec       q    Type
REMARK                         _______ _______ _______ _____ _____    ______ ____
ROOT
ATOM      1  C   UNL     1     -12.043 -13.823  -8.380  0.00  0.00    -0.100 C 
ATOM      2  C   UNL     1     -11.336 -15.168  -8.240  0.00  0.00    -0.100 C 
ATOM      3  C   UNL     1     -11.691 -16.127  -9.378  0.00  0.00    -0.100 C 
ATOM      4  C   UNL     1     -11.474 -15.515 -10.750  0.00  0.00    -0.100 C 
ATOM      5  C   UNL     1     -12.166 -14.161 -10.893  0.00  0.00    +0.200 C 
ATOM      6  N   UNL     1     -13.631 -14.287 -10.671  0.00  0.00    -0.750 NA
ATOM      7  C   UNL     1     -14.406 -14.644 -11.938  0.00  0.00    +0.450 C 
ATOM     18  N   UNL     1     -13.997 -13.832 -13.152  0.00  0.00    -0.750 NA
ATOM     19  C   UNL     1     -12.548 -13.730 -13.325  0.00  0.00    +0.150 C 
ATOM     20  C   UNL     1     -12.228 -12.900 -14.579  0.00  0.00    -0.100 C 
ATOM     21  C   UNL     1     -10.687 -12.681 -14.731  0.00  0.00    -0.100 C 
ATOM     22  C   UNL     1     -10.127 -11.961 -13.514  0.00  0.00    -0.100 C 
ATOM     23  C   UNL     1     -10.422 -12.710 -12.165  0.00  0.00    +0.200 C 
ATOM     24  O   UNL     1      -9.504 -13.727 -12.030  0.00  0.00    -0.650 OA
ATOM     25  C   UNL     1     -11.893 -13.210 -12.033  0.00  0.00    -0.050 C 
ATOM     26  C   UNL     1     -11.825 -13.203  -9.749  0.00  0.00    -0.100 C 
ENDROOT
BRANCH   7   8
ATOM      8  N   UNL     1     -15.706 -14.423 -11.735  0.00  0.00    -0.400 NA
ATOM      9  C   UNL     1     -16.394 -15.096 -10.667  0.00  0.00    +0.150 A 
ATOM     10  O   UNL     1     -15.883 -15.358  -9.460  0.00  0.00    +0.000 OA
ATOM     11  C   UNL     1     -16.843 -16.022  -8.694  0.00  0.00    +0.000 A 
ATOM     12  C   UNL     1     -16.869 -16.535  -7.368  0.00  0.00    -0.130 A 
ATOM     13  C   UNL     1     -18.024 -17.170  -6.892  0.00  0.00    -0.130 A 
ATOM     14  C   UNL     1     -19.154 -17.299  -7.721  0.00  0.00    -0.130 A 
ATOM     15  C   UNL     1     -19.138 -16.791  -9.028  0.00  0.00    -0.130 A 
ATOM     16  C   UNL     1     -17.969 -16.147  -9.513  0.00  0.00    +0.200 A 
ATOM     17  N   UNL     1     -17.649 -15.551 -10.744  0.00  0.00    -0.300 NA
ENDBRANCH   7   8
TORSDOF 1
