REMARK  Name = 4k8a_ligand
REMARK  1 active torsions:
REMARK  status: ('A' for Active; 'I' for Inactive)
REMARK    1  A    between atoms: C1_1  and  C6_6
REMARK                            x       y       z     vdW  Elec       q    Type
REMARK                         _______ _______ _______ _____ _____    ______ ____
ROOT
ATOM      2  C   UNL     1     -10.137 -26.379  43.208  0.00  0.00    +0.071 A 
ATOM      3  C   UNL     1      -9.232 -25.536  43.876  0.00  0.00    +0.121 A 
ATOM      4  N   UNL     1      -8.083 -25.182  43.317  0.00  0.00    -0.288 NA
ATOM      5  C   UNL     1      -7.738 -25.593  42.105  0.00  0.00    +0.112 A 
ATOM      6  C   UNL     1      -8.575 -26.438  41.378  0.00  0.00    +0.045 A 
ATOM      7 BR   UNL     1      -8.084 -26.998  39.640  0.00  0.00    -0.039 Br
ATOM      8  C   UNL     1      -9.795 -26.835  41.922  0.00  0.00    +0.065 A 
ENDROOT
BRANCH   2   1
ATOM      1  C   UNL     1     -11.437 -26.747  43.825  0.00  0.00    +0.195 A 
ATOM      9  N   UNL     1     -12.508 -27.285  43.189  0.00  0.00    -0.149 N 
ATOM     10  H   UNL     1     -12.584 -27.530  42.191  0.00  0.00    +0.271 HD
ATOM     11  N   UNL     1     -13.494 -27.438  44.182  0.00  0.00    -0.062 NA
ATOM     12  N   UNL     1     -12.993 -26.998  45.282  0.00  0.00    -0.137 NA
ATOM     13  N   UNL     1     -11.795 -26.583  45.086  0.00  0.00    -0.204 NA
ENDBRANCH   2   1
TORSDOF 1
