REMARK  Name = 9T6
REMARK  3 active torsions:
REMARK  status: ('A' for Active; 'I' for Inactive)
REMARK    1  A    between atoms: C2_5  and  C10_8
REMARK    2  A    between atoms: C1_6  and  N13_22
REMARK    3  A    between atoms: C18_17  and  N13_22
REMARK                            x       y       z     vdW  Elec       q    Type
REMARK                         _______ _______ _______ _____ _____    ______ ____
ROOT
ATOM      1  C   UNL     1      11.198 -40.310  49.118  0.00  0.00    +0.056 C 
ATOM      2  C   UNL     1      11.320 -39.454  50.246  0.00  0.00    +0.090 C 
ATOM      3  C   UNL     1      10.287 -39.917  51.105  0.00  0.00    +0.373 C 
ATOM      4  N   UNL     1      10.092 -39.317  52.320  0.00  0.00    -0.031 NA
ATOM      5  C   UNL     1      10.833 -38.295  52.739  0.00  0.00    +0.238 C 
ATOM      6  C   UNL     1      11.869 -37.794  51.967  0.00  0.00    +0.101 C 
ATOM     10  N   UNL     1       9.651 -40.920  50.525  0.00  0.00    -0.031 NA
ATOM     11  C   UNL     1      12.141 -38.359  50.660  0.00  0.00    +0.133 C 
ATOM     24  C   UNL     1      10.174 -41.164  49.346  0.00  0.00    +0.236 C 
ENDROOT
BRANCH   6   7
ATOM      7  C   UNL     1      12.620 -36.629  52.494  0.00  0.00    +0.286 C 
ATOM      8  N   UNL     1      12.749 -36.347  53.805  0.00  0.00    -0.084 NA
ATOM      9  O   UNL     1      13.091 -35.828  51.704  0.00  0.00    -0.267 OA
ENDBRANCH   6   7
BRANCH  11  12
ATOM     12  N   UNL     1      13.199 -37.859  49.877  0.00  0.00    -0.211 NA
BRANCH  12  13
ATOM     13  C   UNL     1      13.322 -37.957  48.412  0.00  0.00    +0.073 C 
ATOM     14  C   UNL     1      14.645 -37.359  47.878  0.00  0.00    +0.018 C 
ATOM     15  C   UNL     1      14.723 -35.839  48.053  0.00  0.00    +0.002 C 
ATOM     16  C   UNL     1      13.502 -35.208  47.369  0.00  0.00    +0.003 C 
ATOM     17  C   UNL     1      12.219 -35.766  47.967  0.00  0.00    +0.002 C 
ATOM     18  C   UNL     1      13.518 -35.515  45.870  0.00  0.00    +0.030 C 
ATOM     19  C   UNL     1      13.536 -37.037  45.655  0.00  0.00    +0.127 C 
ATOM     20  C   UNL     1      12.232 -37.600  46.226  0.00  0.00    +0.032 C 
ATOM     21  O   UNL     1      13.614 -37.364  44.274  0.00  0.00    -0.226 OA
ATOM     22  C   UNL     1      14.745 -37.644  46.376  0.00  0.00    +0.032 C 
ATOM     23  C   UNL     1      12.144 -37.277  47.724  0.00  0.00    +0.018 C 
ENDBRANCH  12  13
ENDBRANCH  11  12
TORSDOF 3
