REMARK  Name = 4umu_ligand
REMARK  9 active torsions:
REMARK  status: ('A' for Active; 'I' for Inactive)
REMARK    1  A    between atoms: C1_1  and  C2_2
REMARK    2  A    between atoms: C2_2  and  O3_3
REMARK    3  A    between atoms: O3_3  and  C4_4
REMARK    4  A    between atoms: C6_6  and  O7_7
REMARK    5  A    between atoms: O7_7  and  C8_8
REMARK    6  A    between atoms: C8_8  and  C9_9
REMARK    7  A    between atoms: C10_10  and  C11_11
REMARK    8  A    between atoms: C23_23  and  C24_24
REMARK    9  A    between atoms: C24_24  and  N25_25
REMARK                            x       y       z     vdW  Elec       q    Type
REMARK                         _______ _______ _______ _____ _____    ______ ____
ROOT
ATOM      4  C   UNL     1      35.561  21.836  22.299  0.00  0.00    +0.090 A 
ATOM      5  C   UNL     1      35.351  23.220  22.200  0.00  0.00    +0.020 A 
ATOM     11  C   UNL     1      34.494  23.704  21.211  0.00  0.00    -0.022 A 
ATOM     12  C   UNL     1      33.854  22.842  20.333  0.00  0.00    -0.007 A 
ATOM     13  C   UNL     1      34.054  21.475  20.423  0.00  0.00    +0.077 A 
ATOM     28  C   UNL     1      34.913  20.980  21.413  0.00  0.00    +0.034 A 
ENDROOT
BRANCH   4   3
ATOM      3  O   UNL     1      36.421  21.457  23.306  0.00  0.00    -0.324 OA
BRANCH   3   2
ATOM      1  C   UNL     1      37.572  19.926  24.736  0.00  0.00    +0.039 C 
ATOM      2  C   UNL     1      36.653  20.068  23.542  0.00  0.00    +0.187 C 
ENDBRANCH   3   2
ENDBRANCH   4   3
BRANCH   5   6
ATOM      6  C   UNL     1      36.033  24.188  23.142  0.00  0.00    +0.179 C 
BRANCH   6   7
ATOM      7  N   UNL     1      35.461  24.145  24.513  0.00  0.00    +0.228 N 
ATOM      8  H   UNL     1      34.483  24.384  24.477  0.00  0.00    +0.200 HD
ATOM      9  H   UNL     1      35.566  23.217  24.892  0.00  0.00    +0.200 HD
ATOM     10  H   UNL     1      35.947  24.805  25.101  0.00  0.00    +0.200 HD
ENDBRANCH   6   7
ENDBRANCH   5   6
BRANCH  13  14
ATOM     14  O   UNL     1      33.443  20.563  19.576  0.00  0.00    -0.313 OA
BRANCH  14  15
ATOM     15  C   UNL     1      32.445  20.967  18.585  0.00  0.00    +0.280 C 
BRANCH  15  16
ATOM     16  C   UNL     1      31.938  19.784  17.928  0.00  0.00    -0.063 C 
ATOM     17  C   UNL     1      31.514  18.811  17.389  0.00  0.00    -0.061 C 
BRANCH  17  18
ATOM     18  C   UNL     1      30.986  17.603  16.719  0.00  0.00    +0.031 A 
ATOM     19  C   UNL     1      31.849  16.675  16.158  0.00  0.00    +0.037 A 
ATOM     20  C   UNL     1      31.353  15.539  15.526  0.00  0.00    +0.010 A 
ATOM     21  C   UNL     1      32.193  14.567  14.949  0.00  0.00    +0.107 A 
ATOM     22  N   UNL     1      31.726  13.473  14.338  0.00  0.00    -0.298 NA
ATOM     23  C   UNL     1      30.402  13.292  14.275  0.00  0.00    +0.085 A 
ATOM     24  C   UNL     1      29.490  14.178  14.807  0.00  0.00    +0.040 A 
ATOM     25  C   UNL     1      29.953  15.340  15.453  0.00  0.00    -0.002 A 
ATOM     26  C   UNL     1      29.090  16.297  16.024  0.00  0.00    +0.019 A 
ATOM     27  C   UNL     1      29.609  17.412  16.645  0.00  0.00    +0.027 A 
ENDBRANCH  17  18
ENDBRANCH  15  16
ENDBRANCH  14  15
ENDBRANCH  13  14
TORSDOF 8
