REMARK  Name = 4bdg_ligand
REMARK  2 active torsions:
REMARK  status: ('A' for Active; 'I' for Inactive)
REMARK    1  A    between atoms: C0_1  and  N1_3
REMARK    2  A    between atoms: C4_6  and  C5_7
REMARK                            x       y       z     vdW  Elec       q    Type
REMARK                         _______ _______ _______ _____ _____    ______ ____
ROOT
ATOM      1  C   UNL     1     -36.403  35.095   7.175  0.00  0.00    +0.151 A 
ATOM      2  N   UNL     1     -36.619  35.064   5.816  0.00  0.00    -0.204 N 
ATOM      3  H   UNL     1     -36.295  35.742   5.111  0.00  0.00    +0.253 HD
ATOM      4  N   UNL     1     -37.358  33.935   5.610  0.00  0.00    -0.234 NA
ATOM      5  C   UNL     1     -37.611  33.253   6.748  0.00  0.00    +0.022 A 
ATOM     15  C   UNL     1     -37.016  33.973   7.760  0.00  0.00    -0.010 A 
ENDROOT
BRANCH   5   6
ATOM      6  C   UNL     1     -38.354  31.979   6.781  0.00  0.00    +0.008 A 
ATOM      7  C   UNL     1     -39.004  31.497   5.650  0.00  0.00    +0.037 A 
ATOM      8  C   UNL     1     -39.706  30.306   5.713  0.00  0.00    +0.036 A 
ATOM      9  C   UNL     1     -39.731  29.624   6.916  0.00  0.00    +0.091 A 
ATOM     10  N   UNL     1     -39.113  30.058   8.020  0.00  0.00    -0.297 NA
ATOM     11  C   UNL     1     -38.441  31.216   7.938  0.00  0.00    +0.100 A 
ENDBRANCH   5   6
BRANCH   1  12
ATOM     12  N   UNL     1     -35.733  36.043   7.818  0.00  0.00    -0.310 N 
ATOM     13  H   UNL     1     -35.626  35.994   8.841  0.00  0.00    +0.178 HD
ATOM     14  H   UNL     1     -35.320  36.828   7.294  0.00  0.00    +0.178 HD
ENDBRANCH   1  12
TORSDOF 2
