REMARK  Name = 4FUL
REMARK  5 active torsions:
REMARK  status: ('A' for Active; 'I' for Inactive)
REMARK    1  A    between atoms: C_3  and  C_18
REMARK    2  A    between atoms: C_5  and  C_7
REMARK    3  A    between atoms: N_11  and  C_22
REMARK    4  A    between atoms: C_25  and  S_28
REMARK    5  A    between atoms: S_28  and  N_31
REMARK                            x       y       z     vdW  Elec       q    Type
REMARK                         _______ _______ _______ _____ _____    ______ ____
ROOT
ATOM     14  C   UNL     1      44.842  12.476  29.726  0.00  0.00    +0.076 A 
ATOM     15  C   UNL     1      44.774  11.407  28.829  0.00  0.00    +0.048 A 
ATOM     16  C   UNL     1      45.962  11.006  28.238  0.00  0.00    +0.116 A 
ATOM     17  N   UNL     1      47.159  11.578  28.505  0.00  0.00    -0.223 NA
ATOM     18  C   UNL     1      47.184  12.617  29.369  0.00  0.00    +0.220 A 
ATOM     19  N   UNL     1      48.391  13.289  29.683  0.00  0.00    -0.284 N 
ATOM     20  H   UNL     1      49.264  12.716  29.449  0.00  0.00    +0.155 HD
ATOM     33  N   UNL     1      46.047  13.064  29.984  0.00  0.00    -0.214 NA
ENDROOT
BRANCH  14  13
ATOM      1  C   UNL     1      41.221  13.165  30.785  0.00  0.00    +0.001 A 
ATOM      2  C   UNL     1      41.381  14.065  31.843  0.00  0.00    +0.013 A 
ATOM      3  C   UNL     1      42.672  14.480  32.213  0.00  0.00    +0.037 A 
ATOM     12  C   UNL     1      43.805  13.941  31.551  0.00  0.00    +0.023 A 
ATOM     13  C   UNL     1      43.669  13.036  30.453  0.00  0.00    +0.001 A 
ATOM     34  C   UNL     1      42.343  12.659  30.098  0.00  0.00    +0.010 A 
BRANCH   3   4
ATOM      4  C   UNL     1      42.825  15.456  33.337  0.00  0.00    +0.247 C 
ATOM      5  O   UNL     1      42.346  15.071  34.420  0.00  0.00    -0.270 OA
ATOM      6  N   UNL     1      43.448  16.722  33.146  0.00  0.00    -0.297 N 
ATOM      7  C   UNL     1      43.401  17.701  34.258  0.00  0.00    +0.108 C 
ATOM      8  C   UNL     1      44.646  18.600  34.361  0.00  0.00    +0.019 C 
ATOM      9  C   UNL     1      45.144  19.153  33.010  0.00  0.00    +0.003 C 
ATOM     10  C   UNL     1      45.009  18.183  31.820  0.00  0.00    +0.019 C 
ATOM     11  C   UNL     1      43.700  17.384  31.841  0.00  0.00    +0.108 C 
ENDBRANCH   3   4
ENDBRANCH  14  13
BRANCH  19  21
ATOM     21  C   UNL     1      48.690  14.549  30.237  0.00  0.00    +0.034 A 
ATOM     22  C   UNL     1      47.809  15.267  31.058  0.00  0.00    +0.025 A 
ATOM     23  C   UNL     1      48.158  16.519  31.575  0.00  0.00    +0.030 A 
ATOM     24  C   UNL     1      49.413  17.068  31.311  0.00  0.00    +0.105 A 
ATOM     31  C   UNL     1      50.339  16.362  30.526  0.00  0.00    +0.030 A 
ATOM     32  C   UNL     1      49.973  15.111  29.992  0.00  0.00    +0.025 A 
BRANCH  24  25
ATOM     25  S   UNL     1      49.754  18.668  32.011  0.00  0.00    +0.056 S 
ATOM     29  O   UNL     1      48.681  19.525  31.509  0.00  0.00    -0.153 OA
ATOM     30  O   UNL     1      49.983  18.423  33.433  0.00  0.00    -0.153 OA
BRANCH  25  26
ATOM     26  N   UNL     1      51.209  19.113  31.239  0.00  0.00    -0.203 NA
ATOM     27  H   UNL     1      51.968  18.393  31.465  0.00  0.00    +0.144 HD
ATOM     28  H   UNL     1      51.055  19.149  30.181  0.00  0.00    +0.144 HD
ENDBRANCH  25  26
ENDBRANCH  24  25
ENDBRANCH  19  21
TORSDOF 5
