REMARK  Name = 4XJ0
REMARK  6 active torsions:
REMARK  status: ('A' for Active; 'I' for Inactive)
REMARK    1  A    between atoms: C_3  and  C_4
REMARK    2  A    between atoms: C_4  and  C_13
REMARK    3  A    between atoms: C_4  and  N_15
REMARK    4  A    between atoms: C_13  and  O_14
REMARK    5  A    between atoms: C_17  and  C_20
REMARK    6  A    between atoms: N_24  and  C_25
REMARK                            x       y       z     vdW  Elec       q    Type
REMARK                         _______ _______ _______ _____ _____    ______ ____
ROOT
ATOM      9  N   UNL     1     -13.155 -35.172 -23.585  0.00  0.00    -0.306 N 
ATOM     10  C   UNL     1     -13.730 -33.942 -23.780  0.00  0.00    +0.253 C 
ATOM     11  O   UNL     1     -13.505 -32.999 -23.032  0.00  0.00    -0.268 OA
ATOM     12  C   UNL     1     -14.602 -33.744 -24.888  0.00  0.00    +0.080 C 
ATOM     13  C   UNL     1     -14.877 -34.820 -25.746  0.00  0.00    +0.007 C 
ATOM     28  C   UNL     1     -14.255 -36.075 -25.503  0.00  0.00    +0.028 C 
ATOM     29  C   UNL     1     -13.429 -36.212 -24.448  0.00  0.00    +0.090 C 
ENDROOT
BRANCH  13  14
ATOM     14  C   UNL     1     -15.760 -34.721 -26.941  0.00  0.00    +0.076 A 
ATOM     15  N   UNL     1     -15.902 -35.809 -27.725  0.00  0.00    -0.215 NA
ATOM     16  C   UNL     1     -16.619 -35.798 -28.841  0.00  0.00    +0.216 A 
ATOM     17  N   UNL     1     -16.710 -36.934 -29.646  0.00  0.00    -0.311 N 
ATOM     18  H   UNL     1     -17.245 -36.857 -30.569  0.00  0.00    +0.149 HD
ATOM     25  N   UNL     1     -17.218 -34.674 -29.220  0.00  0.00    -0.223 NA
ATOM     26  C   UNL     1     -17.112 -33.550 -28.505  0.00  0.00    +0.116 A 
ATOM     27  C   UNL     1     -16.394 -33.525 -27.317  0.00  0.00    +0.048 A 
BRANCH  17  19
ATOM     19  C   UNL     1     -16.111 -38.233 -29.296  0.00  0.00    +0.077 C 
ATOM     20  C   UNL     1     -14.594 -38.235 -29.578  0.00  0.00    +0.050 C 
ATOM     21  C   UNL     1     -14.001 -39.617 -29.247  0.00  0.00    +0.161 C 
ATOM     22  O   UNL     1     -14.669 -40.615 -30.041  0.00  0.00    -0.380 OA
ATOM     23  C   UNL     1     -16.102 -40.715 -29.903  0.00  0.00    +0.161 C 
ATOM     24  C   UNL     1     -16.807 -39.356 -30.097  0.00  0.00    +0.050 C 
ENDBRANCH  17  19
ENDBRANCH  13  14
BRANCH   9   8
ATOM      8  C   UNL     1     -12.292 -35.444 -22.414  0.00  0.00    +0.145 C 
BRANCH   8   7
ATOM      1  C   UNL     1     -14.730 -36.654 -19.801  0.00  0.00    +0.142 A 
ATOM      2  F   UNL     1     -15.599 -36.136 -18.904  0.00  0.00    -0.204 F 
ATOM      3  C   UNL     1     -14.620 -38.033 -19.920  0.00  0.00    +0.076 A 
ATOM      4 CL   UNL     1     -15.624 -39.012 -18.917  0.00  0.00    -0.081 Cl
ATOM      5  C   UNL     1     -13.741 -38.614 -20.825  0.00  0.00    +0.023 A 
ATOM      6  C   UNL     1     -12.961 -37.787 -21.625  0.00  0.00    +0.007 A 
ATOM      7  C   UNL     1     -13.040 -36.392 -21.498  0.00  0.00    -0.020 A 
ATOM     33  C   UNL     1     -13.941 -35.831 -20.597  0.00  0.00    +0.045 A 
ENDBRANCH   8   7
BRANCH   8  30
ATOM     30  C   UNL     1     -10.872 -35.890 -22.774  0.00  0.00    +0.185 C 
BRANCH  30  31
ATOM     31  O   UNL     1     -10.126 -35.908 -21.562  0.00  0.00    -0.393 OA
ATOM     32  H   UNL     1     -10.118 -34.946 -21.141  0.00  0.00    +0.209 HD
ENDBRANCH  30  31
ENDBRANCH   8  30
ENDBRANCH   9   8
TORSDOF 6
