REMARK  Name = 4dtk_ligand
REMARK  7 active torsions:
REMARK  status: ('A' for Active; 'I' for Inactive)
REMARK    1  A    between atoms: C_1  and  C1_5
REMARK    2  A    between atoms: N_2  and  C8_16
REMARK    3  A    between atoms: O_3  and  C1_5
REMARK    4  A    between atoms: O_3  and  C3_11
REMARK    5  A    between atoms: C1_5  and  C2_8
REMARK    6  A    between atoms: N1_6  and  C12_20
REMARK    7  A    between atoms: C7_15  and  C14_22
REMARK                            x       y       z     vdW  Elec       q    Type
REMARK                         _______ _______ _______ _____ _____    ______ ____
ROOT
ATOM      5  C   UNL     1      20.630 -39.026  -1.598  0.00  0.00    +0.111 A 
ATOM      6  C   UNL     1      19.899 -37.845  -1.411  0.00  0.00    +0.082 A 
ATOM      7  C   UNL     1      19.701 -37.359  -0.109  0.00  0.00    -0.014 A 
ATOM     17  C   UNL     1      20.247 -38.065   0.971  0.00  0.00    -0.028 A 
ATOM     18  C   UNL     1      20.985 -39.217   0.769  0.00  0.00    -0.035 A 
ATOM     29  C   UNL     1      21.181 -39.701  -0.513  0.00  0.00    +0.006 A 
ENDROOT
BRANCH   7   8
ATOM      8  C   UNL     1      18.761 -36.257   0.102  0.00  0.00    +0.020 C 
ATOM      9  C   UNL     1      18.023 -35.923   1.173  0.00  0.00    +0.111 C 
ATOM     10  C   UNL     1      17.094 -34.772   1.110  0.00  0.00    +0.240 C 
ATOM     11  N   UNL     1      16.278 -34.759   2.228  0.00  0.00    -0.189 N 
ATOM     12  H   UNL     1      15.575 -34.058   2.348  0.00  0.00    +0.225 HD
ATOM     13  C   UNL     1      16.467 -35.736   3.161  0.00  0.00    +0.281 C 
ATOM     14  O   UNL     1      15.805 -35.897   4.167  0.00  0.00    -0.371 OA
ATOM     15  O   UNL     1      17.034 -33.939   0.201  0.00  0.00    -0.378 OA
ATOM     16  S   UNL     1      17.784 -36.807   2.651  0.00  0.00    +0.038 S 
ENDBRANCH   7   8
BRANCH   6  19
ATOM     19  N   UNL     1      19.333 -37.164  -2.537  0.00  0.00    -0.304 N 
ATOM     20  C   UNL     1      18.170 -37.715  -3.243  0.00  0.00    +0.183 C 
ATOM     21  C   UNL     1      17.369 -36.651  -3.958  0.00  0.00    +0.083 C 
ATOM     22  C   UNL     1      18.233 -35.786  -4.861  0.00  0.00    +0.058 C 
ATOM     23  C   UNL     1      19.351 -35.149  -4.047  0.00  0.00    +0.029 C 
ATOM     28  C   UNL     1      20.140 -36.208  -3.307  0.00  0.00    +0.129 C 
BRANCH  21  24
ATOM     24  N   UNL     1      16.311 -37.316  -4.742  0.00  0.00    +0.222 N 
ATOM     25  H   UNL     1      16.732 -37.941  -5.412  0.00  0.00    +0.200 HD
ATOM     26  H   UNL     1      15.713 -37.841  -4.123  0.00  0.00    +0.200 HD
ATOM     27  H   UNL     1      15.765 -36.621  -5.227  0.00  0.00    +0.200 HD
ENDBRANCH  21  24
ENDBRANCH   6  19
BRANCH   5   4
ATOM      4  O   UNL     1      20.733 -39.453  -2.909  0.00  0.00    -0.321 OA
BRANCH   4   2
ATOM      1  C   UNL     1      22.797 -40.153  -3.715  0.00  0.00    +0.042 C 
ATOM      2  C   UNL     1      21.465 -40.649  -3.277  0.00  0.00    +0.137 C 
ATOM      3  C   UNL     1      20.696 -41.292  -4.384  0.00  0.00    +0.042 C 
ENDBRANCH   4   2
ENDBRANCH   5   4
TORSDOF 5
