REMARK  Name = AFV
REMARK  7 active torsions:
REMARK  status: ('A' for Active; 'I' for Inactive)
REMARK    1  A    between atoms: O_6  and  C6_14
REMARK    2  A    between atoms: O_6  and  C7_15
REMARK    3  A    between atoms: C3_9  and  C4_11
REMARK    4  A    between atoms: N3_10  and  C20_28
REMARK    5  A    between atoms: C5_13  and  C6_14
REMARK    6  A    between atoms: C18_26  and  C19_27
REMARK    7  A    between atoms: C20_28  and  C21_29
REMARK                            x       y       z     vdW  Elec       q    Type
REMARK                         _______ _______ _______ _____ _____    ______ ____
ROOT
ATOM      1  C   UNL     1     -16.441  26.218  15.940  0.00  0.00    +0.144 A 
ATOM      2  C   UNL     1     -15.999  26.995  16.904  0.00  0.00    +0.082 A 
ATOM     13  C   UNL     1     -16.823  28.197  17.363  0.00  0.00    +0.003 A 
ATOM     14  C   UNL     1     -17.987  28.449  16.797  0.00  0.00    -0.022 A 
ATOM     32  C   UNL     1     -18.504  27.544  15.682  0.00  0.00    -0.002 A 
ATOM     33  F   UNL     1     -15.697  25.148  15.529  0.00  0.00    -0.204 F 
ATOM     34  C   UNL     1     -17.788  26.512  15.284  0.00  0.00    +0.029 A 
ENDROOT
BRANCH  14  15
ATOM     15  C   UNL     1     -18.814  29.652  17.262  0.00  0.00    +0.029 C 
ATOM     16  C   UNL     1     -19.242  29.409  18.706  0.00  0.00    +0.065 C 
ATOM     17  C   UNL     1     -19.439  30.683  19.457  0.00  0.00    +0.093 C 
ATOM     18  N   UNL     1     -18.332  31.560  19.399  0.00  0.00    -0.218 NA
ATOM     19  C   UNL     1     -18.268  32.107  18.060  0.00  0.00    +0.089 C 
ATOM     31  C   UNL     1     -17.944  30.915  17.070  0.00  0.00    +0.023 C 
BRANCH  16  20
ATOM     20  C   UNL     1     -20.588  28.636  18.740  0.00  0.00    +0.207 C 
BRANCH  20  21
ATOM     21  O   UNL     1     -20.925  28.242  17.438  0.00  0.00    -0.475 OA
BRANCH  21  22
ATOM     22  C   UNL     1     -22.217  27.721  17.298  0.00  0.00    +0.139 A 
ATOM     23  C   UNL     1     -22.542  26.509  17.927  0.00  0.00    +0.040 A 
ATOM     24  C   UNL     1     -23.809  25.996  17.784  0.00  0.00    +0.043 A 
ATOM     25  C   UNL     1     -24.563  24.910  18.188  0.00  0.00    +0.124 A 
ATOM     26  N   UNL     1     -25.759  24.764  17.844  0.00  0.00    -0.146 NA
ATOM     27  N   UNL     1     -25.976  25.859  17.081  0.00  0.00    -0.148 NA
ATOM     28  C   UNL     1     -24.771  26.715  16.986  0.00  0.00    +0.105 A 
ATOM     29  C   UNL     1     -24.458  27.893  16.371  0.00  0.00    +0.024 A 
ATOM     30  C   UNL     1     -23.173  28.414  16.517  0.00  0.00    +0.039 A 
ENDBRANCH  21  22
ENDBRANCH  20  21
ENDBRANCH  16  20
ENDBRANCH  14  15
BRANCH   2   3
ATOM      3  C   UNL     1     -14.643  26.714  17.552  0.00  0.00    +0.267 C 
ATOM      4  N   UNL     1     -14.436  26.985  18.964  0.00  0.00    -0.195 NA
ATOM     12  O   UNL     1     -13.757  26.282  16.893  0.00  0.00    -0.268 OA
BRANCH   4   5
ATOM      5  C   UNL     1     -13.137  26.724  19.557  0.00  0.00    +0.161 C 
BRANCH   5   6
ATOM      6  C   UNL     1     -12.967  25.236  19.836  0.00  0.00    +0.081 A 
ATOM      7  N   UNL     1     -11.607  24.678  20.049  0.00  0.00    -0.246 NA
ATOM      8  C   UNL     1     -11.458  23.425  20.285  0.00  0.00    +0.099 A 
ATOM      9  C   UNL     1     -12.676  22.514  20.347  0.00  0.00    +0.021 A 
ATOM     10  C   UNL     1     -13.849  22.992  20.165  0.00  0.00    +0.003 A 
ATOM     11  C   UNL     1     -14.022  24.450  19.890  0.00  0.00    +0.017 A 
ENDBRANCH   5   6
ENDBRANCH   4   5
ENDBRANCH   2   3
TORSDOF 7
