REMARK  Name = 3qk0_ligand
REMARK  5 active torsions:
REMARK  status: ('A' for Active; 'I' for Inactive)
REMARK    1  A    between atoms: C13_5  and  C12_10
REMARK    2  A    between atoms: C1_17  and  C11_18
REMARK    3  A    between atoms: C16_22  and  N21_23
REMARK    4  A    between atoms: N21_23  and  S22_24
REMARK    5  A    between atoms: S22_24  and  C25_27
REMARK                            x       y       z     vdW  Elec       q    Type
REMARK                         _______ _______ _______ _____ _____    ______ ____
ROOT
ATOM      5  C   UNL     1      24.450  12.910  22.421  0.00  0.00    -0.018 A 
ATOM      6  C   UNL     1      25.505  12.363  23.153  0.00  0.00    +0.061 A 
ATOM      7  N   UNL     1      26.738  12.332  22.666  0.00  0.00    -0.302 NA
ATOM      8  C   UNL     1      27.031  12.805  21.440  0.00  0.00    +0.132 A 
ATOM      9  C   UNL     1      26.026  13.357  20.636  0.00  0.00    +0.105 A 
ATOM     22 CL   UNL     1      28.670  12.725  20.874  0.00  0.00    -0.054 Cl
ATOM     23  C   UNL     1      24.719  13.392  21.137  0.00  0.00    +0.033 A 
ENDROOT
BRANCH   5   4
ATOM      1  C   UNL     1      20.504  12.775  23.933  0.00  0.00    +0.009 A 
ATOM      2  C   UNL     1      21.456  11.832  24.297  0.00  0.00    -0.009 A 
ATOM      3  C   UNL     1      22.753  11.897  23.797  0.00  0.00    -0.011 A 
ATOM      4  C   UNL     1      23.144  12.911  22.924  0.00  0.00    -0.030 A 
ATOM     24  C   UNL     1      22.200  13.861  22.539  0.00  0.00    +0.012 A 
ATOM     25  N   UNL     1      19.214  12.850  24.329  0.00  0.00    -0.307 NA
ATOM     26  C   UNL     1      18.513  13.873  23.825  0.00  0.00    +0.213 A 
ATOM     27  S   UNL     1      19.541  14.762  22.801  0.00  0.00    +0.031 S 
ATOM     28  N   UNL     1      17.213  14.085  24.110  0.00  0.00    -0.189 N 
ATOM     29  H   UNL     1      16.799  13.476  24.816  0.00  0.00    +0.245 HD
ATOM     30  C   UNL     1      16.401  15.009  23.569  0.00  0.00    +0.215 C 
ATOM     31  O   UNL     1      16.724  15.847  22.724  0.00  0.00    -0.379 OA
ATOM     32  C   UNL     1      14.960  14.973  24.096  0.00  0.00    +0.177 C 
ATOM     33  C   UNL     1      20.898  13.794  23.043  0.00  0.00    +0.049 A 
ENDBRANCH   5   4
BRANCH   9  10
ATOM     10  N   UNL     1      26.344  13.816  19.413  0.00  0.00    -0.181 N 
ATOM     11  H   UNL     1      27.231  13.507  19.016  0.00  0.00    +0.218 HD
BRANCH  10  12
ATOM     12  S   UNL     1      25.432  14.828  18.505  0.00  0.00    +0.089 S 
ATOM     20  O   UNL     1      26.176  15.137  17.239  0.00  0.00    -0.145 OA
ATOM     21  O   UNL     1      24.103  14.205  18.175  0.00  0.00    -0.145 OA
BRANCH  12  13
ATOM     13  C   UNL     1      25.185  16.314  19.377  0.00  0.00    +0.110 A 
ATOM     14  C   UNL     1      23.890  16.814  19.557  0.00  0.00    +0.026 A 
ATOM     15  C   UNL     1      23.702  18.004  20.265  0.00  0.00    +0.034 A 
ATOM     16  C   UNL     1      24.811  18.681  20.783  0.00  0.00    +0.133 A 
ATOM     17  F   UNL     1      24.635  19.829  21.466  0.00  0.00    -0.183 F 
ATOM     18  C   UNL     1      26.104  18.179  20.600  0.00  0.00    +0.034 A 
ATOM     19  C   UNL     1      26.292  16.990  19.895  0.00  0.00    +0.026 A 
ENDBRANCH  12  13
ENDBRANCH  10  12
ENDBRANCH   9  10
TORSDOF 4
