REMARK  Name = DWT
REMARK  5 active torsions:
REMARK  status: ('A' for Active; 'I' for Inactive)
REMARK    1  A    between atoms: CBH_2  and  CBF_5
REMARK    2  A    between atoms: CBB_10  and  NAZ_11
REMARK    3  A    between atoms: CAY_12  and  CAV_14
REMARK    4  A    between atoms: CAR_20  and  NAC_21
REMARK    5  A    between atoms: C2_31  and  CAL_32
REMARK                            x       y       z     vdW  Elec       q    Type
REMARK                         _______ _______ _______ _____ _____    ______ ____
ROOT
ATOM     11  C   UNL     1    -105.505 -17.287  50.067  0.00  0.00    +0.057 A 
ATOM     12  C   UNL     1    -105.978 -18.592  50.285  0.00  0.00    +0.004 A 
ATOM     13  C   UNL     1    -105.477 -19.668  49.537  0.00  0.00    -0.003 A 
ATOM     14  C   UNL     1    -104.517 -19.487  48.540  0.00  0.00    -0.006 A 
ATOM     15  C   UNL     1    -104.043 -18.188  48.321  0.00  0.00    +0.069 A 
ATOM     33  C   UNL     1    -104.030 -20.590  47.807  0.00  0.00    +0.032 C 
ATOM     34  C   UNL     1    -104.555 -17.118  49.056  0.00  0.00    +0.021 A 
ENDROOT
BRANCH  15  16
ATOM     16  N   UNL     1    -103.134 -17.989  47.340  0.00  0.00    -0.184 NA
ATOM     17  C   UNL     1    -101.800 -17.794  47.503  0.00  0.00    +0.209 C 
ATOM     18  C   UNL     1    -101.113 -18.116  48.632  0.00  0.00    +0.100 A 
ATOM     19  C   UNL     1    -101.390 -18.619  49.848  0.00  0.00    +0.102 A 
ATOM     20  N   UNL     1    -100.246 -18.695  50.543  0.00  0.00    -0.246 N 
ATOM     21  C   UNL     1    -100.045 -19.176  51.937  0.00  0.00    +0.154 C 
ATOM     22  N   UNL     1     -99.303 -18.269  49.848  0.00  0.00    -0.152 NA
ATOM     23  C   UNL     1     -99.780 -17.904  48.660  0.00  0.00    +0.179 A 
ATOM     24  N   UNL     1     -99.129 -17.396  47.604  0.00  0.00    -0.163 NA
ATOM     25  C   UNL     1     -99.808 -17.094  46.493  0.00  0.00    +0.208 C 
ATOM     32  N   UNL     1    -101.139 -17.281  46.450  0.00  0.00    -0.368 NA
BRANCH  25  26
ATOM     26  C   UNL     1     -99.157 -16.519  45.397  0.00  0.00    +0.065 A 
ATOM     27  C   UNL     1     -97.778 -16.342  45.373  0.00  0.00    +0.007 A 
ATOM     28  C   UNL     1     -97.178 -15.732  44.274  0.00  0.00    +0.021 A 
ATOM     29  C   UNL     1     -97.944 -15.278  43.209  0.00  0.00    +0.099 A 
ATOM     30  N   UNL     1     -99.323 -15.433  43.229  0.00  0.00    -0.242 NA
ATOM     31  C   UNL     1     -99.912 -16.046  44.337  0.00  0.00    +0.103 A 
ENDBRANCH  25  26
ENDBRANCH  15  16
BRANCH  11   9
ATOM      8  N   UNL     1    -107.027 -16.317  51.615  0.00  0.00    -0.175 NA
ATOM      9  C   UNL     1    -106.011 -16.130  50.722  0.00  0.00    +0.269 C 
ATOM     10  O   UNL     1    -105.652 -15.007  50.334  0.00  0.00    -0.268 OA
BRANCH   8   7
ATOM      3  C   UNL     1    -108.764 -13.060  52.246  0.00  0.00    +0.073 A 
ATOM      4  C   UNL     1    -109.340 -13.363  53.481  0.00  0.00    +0.004 A 
ATOM      5  C   UNL     1    -109.137 -14.616  54.063  0.00  0.00    +0.001 A 
ATOM      6  C   UNL     1    -108.362 -15.578  53.418  0.00  0.00    +0.017 A 
ATOM      7  C   UNL     1    -107.747 -15.305  52.195  0.00  0.00    +0.074 A 
ATOM     35  C   UNL     1    -107.971 -14.037  51.617  0.00  0.00    +0.021 A 
BRANCH   3   2
ATOM      1  F   UNL     1    -109.082 -11.878  50.375  0.00  0.00    -0.166 F 
ATOM      2  C   UNL     1    -108.940 -11.782  51.655  0.00  0.00    +0.419 C 
ATOM     36  F   UNL     1    -110.017 -11.153  52.166  0.00  0.00    -0.166 F 
ATOM     37  F   UNL     1    -107.894 -11.024  51.870  0.00  0.00    -0.166 F 
ENDBRANCH   3   2
ENDBRANCH   8   7
ENDBRANCH  11   9
TORSDOF 5
