REMARK  Name = 2ycf_ligand
REMARK  16 active torsions:
REMARK  status: ('A' for Active; 'I' for Inactive)
REMARK    1  A    between atoms: NAA_1  and  CAK_11
REMARK    2  A    between atoms: NAB_2  and  CAK_11
REMARK    3  A    between atoms: NAB_2  and  OBE_31
REMARK    4  A    between atoms: NAC_3  and  CAK_11
REMARK    5  A    between atoms: NAD_4  and  CAL_12
REMARK    6  A    between atoms: NAE_5  and  CAQ_17
REMARK    7  A    between atoms: NAF_6  and  CAU_21
REMARK    8  A    between atoms: NAG_7  and  CBA_27
REMARK    9  A    between atoms: NAH_8  and  CBC_29
REMARK   10  A    between atoms: NAI_9  and  CBC_29
REMARK   11  A    between atoms: NAI_9  and  OBF_32
REMARK   12  A    between atoms: NAJ_10  and  CBC_29
REMARK   13  A    between atoms: CAL_12  and  CAM_13
REMARK   14  A    between atoms: CAL_12  and  CAN_14
REMARK   15  A    between atoms: CAX_24  and  CBA_27
REMARK   16  A    between atoms: CBA_27  and  CBB_28
REMARK                            x       y       z     vdW  Elec       q    Type
REMARK                         _______ _______ _______ _____ _____    ______ ____
ROOT
ATOM     14  N   UNL     1      45.905  16.312  -7.975  0.00  0.00    -0.219 N 
ATOM     15  H   UNL     1      45.098  16.721  -7.505  0.00  0.00    +0.224 HD
ATOM     16  C   UNL     1      46.487  15.283  -7.327  0.00  0.00    +0.313 C 
ATOM     17  O   UNL     1      47.450  14.657  -7.772  0.00  0.00    -0.382 OA
ATOM     18  N   UNL     1      45.854  14.947  -6.184  0.00  0.00    -0.219 N 
ATOM     19  H   UNL     1      44.947  15.392  -6.045  0.00  0.00    +0.224 HD
ENDROOT
BRANCH  14  12
ATOM      9  C   UNL     1      46.796  18.241 -11.565  0.00  0.00    -0.006 A 
ATOM     10  C   UNL     1      47.319  16.969 -11.350  0.00  0.00    -0.017 A 
ATOM     11  C   UNL     1      47.028  16.289 -10.151  0.00  0.00    +0.001 A 
ATOM     12  C   UNL     1      46.235  16.883  -9.160  0.00  0.00    +0.060 A 
ATOM     13  C   UNL     1      45.734  18.168  -9.378  0.00  0.00    +0.001 A 
ATOM     39  C   UNL     1      46.011  18.834 -10.568  0.00  0.00    -0.017 A 
BRANCH   9   8
ATOM      8  C   UNL     1      47.069  18.982 -12.722  0.00  0.00    +0.308 C 
ATOM     40  C   UNL     1      47.542  18.333 -14.028  0.00  0.00    +0.080 C 
BRANCH   8   7
ATOM      5  N   UNL     1      47.231  21.107 -13.516  0.00  0.00    -0.067 N 
ATOM      6  H   UNL     1      47.517  20.762 -14.432  0.00  0.00    +0.357 HD
ATOM      7  N   UNL     1      46.994  20.311 -12.601  0.00  0.00    +0.063 NA
BRANCH   5   4
ATOM      4  C   UNL     1      47.111  22.423 -13.301  0.00  0.00    +0.426 C 
BRANCH   4   1
ATOM      1  N   UNL     1      46.727  22.907 -12.118  0.00  0.00    -0.273 NA
ATOM      2  H   UNL     1      46.644  23.914 -11.982  0.00  0.00    +0.226 HD
ATOM      3  H   UNL     1      46.517  22.270 -11.350  0.00  0.00    +0.226 HD
ENDBRANCH   4   1
BRANCH   4  41
ATOM     41  N   UNL     1      47.366  23.268 -14.288  0.00  0.00    -0.026 NA
ATOM     42  H   UNL     1      47.654  22.921 -15.203  0.00  0.00    +0.389 HD
BRANCH  41  43
ATOM     43  O   UNL     1      47.240  24.603 -14.067  0.00  0.00    -0.104 OA
ATOM     44  H   UNL     1      47.457  25.081 -14.871  0.00  0.00    +0.401 HD
ENDBRANCH  41  43
ENDBRANCH   4  41
ENDBRANCH   5   4
ENDBRANCH   8   7
ENDBRANCH   9   8
ENDBRANCH  14  12
BRANCH  18  20
ATOM     20  C   UNL     1      46.241  14.106  -5.190  0.00  0.00    +0.060 A 
ATOM     21  C   UNL     1      47.370  13.274  -5.214  0.00  0.00    +0.001 A 
ATOM     22  C   UNL     1      47.691  12.474  -4.102  0.00  0.00    -0.017 A 
ATOM     23  C   UNL     1      46.897  12.500  -2.936  0.00  0.00    -0.006 A 
ATOM     37  C   UNL     1      45.778  13.342  -2.915  0.00  0.00    -0.017 A 
ATOM     38  C   UNL     1      45.470  14.136  -4.017  0.00  0.00    +0.001 A 
BRANCH  23  24
ATOM     24  C   UNL     1      47.204  11.719  -1.805  0.00  0.00    +0.308 C 
ATOM     25  C   UNL     1      48.054  10.447  -1.940  0.00  0.00    +0.080 C 
BRANCH  24  26
ATOM     26  N   UNL     1      46.819  12.142  -0.579  0.00  0.00    +0.063 NA
ATOM     27  N   UNL     1      47.056  11.538   0.483  0.00  0.00    -0.067 N 
ATOM     28  H   UNL     1      47.551  10.646   0.474  0.00  0.00    +0.357 HD
BRANCH  27  29
ATOM     29  C   UNL     1      46.648  12.081   1.642  0.00  0.00    +0.426 C 
BRANCH  29  30
ATOM     30  N   UNL     1      46.850  11.474   2.818  0.00  0.00    -0.273 NA
ATOM     31  H   UNL     1      46.528  11.913   3.680  0.00  0.00    +0.226 HD
ATOM     32  H   UNL     1      47.326  10.573   2.852  0.00  0.00    +0.226 HD
ENDBRANCH  29  30
BRANCH  29  33
ATOM     33  N   UNL     1      45.974  13.218   1.626  0.00  0.00    -0.026 NA
ATOM     34  H   UNL     1      45.796  13.691   0.740  0.00  0.00    +0.389 HD
BRANCH  33  35
ATOM     35  O   UNL     1      45.515  13.763   2.793  0.00  0.00    -0.104 OA
ATOM     36  H   UNL     1      45.051  14.581   2.602  0.00  0.00    +0.401 HD
ENDBRANCH  33  35
ENDBRANCH  29  33
ENDBRANCH  27  29
ENDBRANCH  24  26
ENDBRANCH  23  24
ENDBRANCH  18  20
TORSDOF 14
