REMARK  Name = 5VC4
REMARK  13 active torsions:
REMARK  status: ('A' for Active; 'I' for Inactive)
REMARK    1  A    between atoms: C_1  and  O_20
REMARK    2  A    between atoms: O_2  and  C_22
REMARK    3  A    between atoms: O_2  and  C_35
REMARK    4  A    between atoms: C_3  and  C_11
REMARK    5  A    between atoms: C_3  and  N_32
REMARK    6  A    between atoms: C_7  and  C_25
REMARK    7  A    between atoms: C_11  and  C_12
REMARK    8  A    between atoms: C_12  and  O_21
REMARK    9  A    between atoms: C_13  and  N_34
REMARK   10  A    between atoms: N_19  and  C_26
REMARK   11  A    between atoms: N_19  and  C_29
REMARK   12  A    between atoms: O_20  and  C_27
REMARK   13  A    between atoms: O_21  and  C_28
REMARK                            x       y       z     vdW  Elec       q    Type
REMARK                         _______ _______ _______ _____ _____    ______ ____
ROOT
ATOM      3  C   UNL     1      -5.470   6.652  10.923  0.00  0.00    +0.162 A 
ATOM      4  C   UNL     1      -6.309   7.199  11.920  0.00  0.00    +0.164 A 
ATOM     16  C   UNL     1      -6.320   6.629  13.204  0.00  0.00    +0.077 A 
ATOM     17  C   UNL     1      -5.501   5.525  13.491  0.00  0.00    +0.073 A 
ATOM     18  C   UNL     1      -4.646   4.954  12.505  0.00  0.00    +0.009 A 
ATOM     19  C   UNL     1      -3.840   3.829  12.851  0.00  0.00    +0.112 C 
ATOM     20  C   UNL     1      -3.924   3.333  14.197  0.00  0.00    +0.145 C 
ATOM     21  C   UNL     1      -4.796   3.954  15.112  0.00  0.00    +0.110 C 
ATOM     36  N   UNL     1      -5.543   5.011  14.740  0.00  0.00    -0.258 NA
ATOM     37  C   UNL     1      -4.651   5.541  11.215  0.00  0.00    +0.057 A 
ENDROOT
BRANCH   3   2
ATOM      1  C   UNL     1      -4.119   7.539   9.250  0.00  0.00    +0.277 C 
ATOM      2  O   UNL     1      -5.452   7.192   9.667  0.00  0.00    -0.491 OA
ENDBRANCH   3   2
BRANCH  20  22
ATOM     22  C   UNL     1      -3.247   2.320  14.671  0.00  0.00    +0.080 C 
ATOM     23  N   UNL     1      -2.651   1.426  15.075  0.00  0.00    -0.196 NA
ENDBRANCH  20  22
BRANCH  19  24
ATOM     24  N   UNL     1      -2.997   3.257  11.915  0.00  0.00    -0.330 N 
ATOM     25  H   UNL     1      -2.674   3.940  11.157  0.00  0.00    +0.147 HD
BRANCH  24  26
ATOM     26  C   UNL     1      -2.490   1.986  11.762  0.00  0.00    +0.031 A 
ATOM     27  C   UNL     1      -3.367   0.901  11.988  0.00  0.00    +0.046 A 
ATOM     28  C   UNL     1      -2.936  -0.434  11.873  0.00  0.00    +0.086 A 
ATOM     29  C   UNL     1      -1.602  -0.715  11.506  0.00  0.00    +0.157 A 
ATOM     30  C   UNL     1      -0.712   0.359  11.265  0.00  0.00    +0.086 A 
ATOM     31 CL   UNL     1       0.902   0.085  10.821  0.00  0.00    -0.080 Cl
ATOM     34 CL   UNL     1      -4.053  -1.674  12.176  0.00  0.00    -0.080 Cl
ATOM     35  C   UNL     1      -1.157   1.690  11.393  0.00  0.00    +0.046 A 
BRANCH  29  32
ATOM     32  O   UNL     1      -1.165  -2.011  11.382  0.00  0.00    -0.492 OA
ATOM     33  C   UNL     1      -0.560  -2.538  12.583  0.00  0.00    +0.277 C 
ENDBRANCH  29  32
ENDBRANCH  24  26
ENDBRANCH  19  24
BRANCH   4   5
ATOM      5  O   UNL     1      -7.113   8.274  11.645  0.00  0.00    -0.488 OA
BRANCH   5   6
ATOM      6  C   UNL     1      -7.931   8.720  12.748  0.00  0.00    +0.230 C 
BRANCH   6   7
ATOM      7  C   UNL     1      -8.963   9.767  12.261  0.00  0.00    +0.056 C 
BRANCH   7   8
ATOM      8  C   UNL     1      -9.011   9.899  10.714  0.00  0.00    +0.088 C 
BRANCH   8   9
ATOM      9  N   UNL     1     -10.235  10.599  10.202  0.00  0.00    -0.300 NA
ATOM     10  C   UNL     1     -10.553  10.202   8.791  0.00  0.00    +0.100 C 
ATOM     11  C   UNL     1     -11.830  10.898   8.268  0.00  0.00    +0.099 C 
ATOM     12  N   UNL     1     -11.682  12.375   8.406  0.00  0.00    -0.303 NA
ATOM     13  C   UNL     1     -11.485  12.762   9.831  0.00  0.00    +0.099 C 
ATOM     14  C   UNL     1     -10.636  12.934   7.509  0.00  0.00    +0.105 C 
ATOM     15  C   UNL     1     -10.206  12.086  10.383  0.00  0.00    +0.100 C 
ENDBRANCH   8   9
ENDBRANCH   7   8
ENDBRANCH   6   7
ENDBRANCH   5   6
ENDBRANCH   4   5
TORSDOF 10
