REMARK  Name = CVQ
REMARK  10 active torsions:
REMARK  status: ('A' for Active; 'I' for Inactive)
REMARK    1  A    between atoms: C4_1  and  N29_19
REMARK    2  A    between atoms: C6_3  and  C7_5
REMARK    3  A    between atoms: C3_10  and  O38_21
REMARK    4  A    between atoms: O36_12  and  C31_13
REMARK    5  A    between atoms: C30_18  and  N29_19
REMARK    6  A    between atoms: N9_26  and  C16_27
REMARK    7  A    between atoms: C16_27  and  C17_28
REMARK    8  A    between atoms: C20_35  and  O24_36
REMARK    9  A    between atoms: O24_36  and  C25_37
REMARK   10  A    between atoms: C25_37  and  C26_38
REMARK                            x       y       z     vdW  Elec       q    Type
REMARK                         _______ _______ _______ _____ _____    ______ ____
ROOT
ATOM     13  C   UNL     1      18.128 -32.580 -14.619  0.00  0.00    +0.138 A 
ATOM     14  C   UNL     1      18.438 -33.475 -13.600  0.00  0.00    +0.040 A 
ATOM     15  C   UNL     1      17.703 -34.211 -12.649  0.00  0.00    +0.003 A 
ATOM     16  C   UNL     1      18.391 -35.046 -11.768  0.00  0.00    +0.000 A 
ATOM     17  C   UNL     1      19.778 -35.135 -11.817  0.00  0.00    +0.002 A 
ATOM     18  C   UNL     1      20.489 -34.411 -12.764  0.00  0.00    +0.019 A 
ATOM     19  C   UNL     1      19.804 -33.583 -13.640  0.00  0.00    +0.080 A 
ATOM     20  N   UNL     1      20.205 -32.794 -14.636  0.00  0.00    -0.246 N 
ATOM     34  N   UNL     1      19.267 -32.215 -15.207  0.00  0.00    -0.166 NA
ENDROOT
BRANCH  13  12
ATOM      1  C   UNL     1      14.664 -31.638 -14.431  0.00  0.00    +0.189 A 
ATOM     11  N   UNL     1      15.890 -32.040 -14.084  0.00  0.00    -0.205 NA
ATOM     12  C   UNL     1      16.841 -32.193 -14.986  0.00  0.00    +0.183 A 
ATOM     35  N   UNL     1      16.572 -31.991 -16.311  0.00  0.00    -0.220 NA
ATOM     36  C   UNL     1      15.362 -31.624 -16.748  0.00  0.00    +0.140 A 
ATOM     37  C   UNL     1      14.360 -31.464 -15.799  0.00  0.00    +0.191 A 
BRANCH  37  38
ATOM     38  O   UNL     1      13.097 -31.085 -16.125  0.00  0.00    -0.467 OA
ATOM     39  C   UNL     1      12.836 -30.656 -17.514  0.00  0.00    +0.253 C 
ENDBRANCH  37  38
BRANCH   1   2
ATOM      2  N   UNL     1      13.660 -31.453 -13.558  0.00  0.00    -0.188 NA
BRANCH   2   3
ATOM      3  C   UNL     1      13.700 -31.342 -12.202  0.00  0.00    +0.109 A 
ATOM      4  C   UNL     1      14.785 -31.621 -11.356  0.00  0.00    +0.040 A 
ATOM      5  C   UNL     1      14.618 -31.490  -9.971  0.00  0.00    +0.100 A 
ATOM      6  N   UNL     1      13.443 -31.125  -9.456  0.00  0.00    -0.239 NA
ATOM      7  C   UNL     1      12.375 -30.914 -10.242  0.00  0.00    +0.137 A 
ATOM      8  C   UNL     1      12.485 -31.003 -11.622  0.00  0.00    +0.173 A 
BRANCH   8   9
ATOM      9  O   UNL     1      11.461 -30.805 -12.506  0.00  0.00    -0.469 OA
ATOM     10  C   UNL     1      10.233 -30.241 -12.109  0.00  0.00    +0.253 C 
ENDBRANCH   8   9
ENDBRANCH   2   3
ENDBRANCH   1   2
ENDBRANCH  13  12
BRANCH  20  21
ATOM     21  C   UNL     1      21.608 -32.642 -14.987  0.00  0.00    +0.158 C 
BRANCH  21  22
ATOM     22  C   UNL     1      22.403 -31.881 -13.926  0.00  0.00    +0.057 A 
ATOM     23  C   UNL     1      23.480 -32.506 -13.295  0.00  0.00    +0.143 A 
ATOM     24  C   UNL     1      24.260 -31.827 -12.356  0.00  0.00    +0.066 A 
ATOM     25  C   UNL     1      23.944 -30.531 -12.001  0.00  0.00    +0.143 A 
ATOM     30  C   UNL     1      22.841 -29.916 -12.585  0.00  0.00    +0.066 A 
ATOM     31  F   UNL     1      23.861 -33.760 -13.628  0.00  0.00    -0.204 F 
ATOM     32  C   UNL     1      22.091 -30.586 -13.539  0.00  0.00    +0.143 A 
ATOM     33  F   UNL     1      21.074 -29.911 -14.101  0.00  0.00    -0.204 F 
BRANCH  25  26
ATOM     26  O   UNL     1      24.723 -29.946 -11.054  0.00  0.00    -0.472 OA
BRANCH  26  27
ATOM     27  C   UNL     1      25.174 -28.609 -11.248  0.00  0.00    +0.241 C 
BRANCH  27  28
ATOM     28  C   UNL     1      24.683 -27.920 -10.014  0.00  0.00    +0.229 C 
ATOM     29  O   UNL     1      23.280 -28.134 -10.022  0.00  0.00    -0.216 OA
ENDBRANCH  27  28
ENDBRANCH  26  27
ENDBRANCH  25  26
ENDBRANCH  21  22
ENDBRANCH  20  21
TORSDOF 10
