REMARK  Name = 5C9C
REMARK  11 active torsions:
REMARK  status: ('A' for Active; 'I' for Inactive)
REMARK    1  A    between atoms: N_3  and  C_4
REMARK    2  A    between atoms: C_4  and  C_5
REMARK    3  A    between atoms: C_5  and  C_6
REMARK    4  A    between atoms: C_6  and  C_7
REMARK    5  A    between atoms: C_6  and  C_8
REMARK    6  A    between atoms: C_6  and  C_9
REMARK    7  A    between atoms: N_10  and  C_11
REMARK    8  A    between atoms: C_16  and  C_17
REMARK    9  A    between atoms: C_18  and  C_19
REMARK   10  A    between atoms: C_23  and  C_24
REMARK   11  A    between atoms: N_30  and  C_31
REMARK                            x       y       z     vdW  Elec       q    Type
REMARK                         _______ _______ _______ _____ _____    ______ ____
ROOT
ATOM      5  C   UNL     1      -2.890  25.558   8.591  0.00  0.00    +0.071 A 
ATOM      6  C   UNL     1      -2.494  26.319   9.662  0.00  0.00    +0.145 A 
ATOM      7  C   UNL     1      -3.051  26.153  10.925  0.00  0.00    +0.044 A 
ATOM      8  C   UNL     1      -4.031  25.187  11.125  0.00  0.00    -0.040 A 
ATOM      9  C   UNL     1      -4.430  24.392  10.034  0.00  0.00    -0.011 A 
ATOM     24  C   UNL     1      -4.605  25.057  12.517  0.00  0.00    +0.044 C 
ATOM     25  F   UNL     1      -1.538  27.232   9.473  0.00  0.00    -0.203 F 
ATOM     26  C   UNL     1      -3.846  24.567   8.772  0.00  0.00    +0.035 A 
ENDROOT
BRANCH   9  10
ATOM     10  C   UNL     1      -5.466  23.358  10.297  0.00  0.00    +0.004 A 
ATOM     11  C   UNL     1      -5.081  22.008  10.389  0.00  0.00    +0.048 A 
ATOM     12  N   UNL     1      -6.014  21.046  10.643  0.00  0.00    -0.234 NA
ATOM     13  C   UNL     1      -7.311  21.387  10.830  0.00  0.00    +0.142 A 
ATOM     14  N   UNL     1      -8.214  20.434  11.111  0.00  0.00    -0.309 N 
ATOM     15  H   UNL     1      -7.896  19.415  11.179  0.00  0.00    +0.170 HD
ATOM     16  C   UNL     1      -9.518  20.735  11.310  0.00  0.00    +0.225 A 
ATOM     17  N   UNL     1     -10.399  19.738  11.580  0.00  0.00    -0.254 NA
ATOM     18  C   UNL     1      -9.952  18.360  11.692  0.00  0.00    +0.174 C 
ATOM     19  N   UNL     1      -9.935  22.023  11.232  0.00  0.00    -0.220 NA
ATOM     20  C   UNL     1      -9.073  23.003  10.945  0.00  0.00    +0.126 A 
ATOM     21  C   UNL     1      -7.732  22.709  10.744  0.00  0.00    +0.036 A 
ATOM     22  C   UNL     1      -3.631  21.585  10.188  0.00  0.00    +0.066 C 
ATOM     23  C   UNL     1      -6.800  23.718  10.476  0.00  0.00    +0.023 A 
ENDBRANCH   9  10
BRANCH   5   3
ATOM      1  O   UNL     1      -4.016  25.446   6.025  0.00  0.00    -0.253 OA
ATOM      2  C   UNL     1      -2.838  25.785   6.193  0.00  0.00    +0.304 C 
ATOM      3  N   UNL     1      -2.276  25.807   7.407  0.00  0.00    -0.267 N 
ATOM      4  H   UNL     1      -1.234  26.046   7.448  0.00  0.00    +0.157 HD
ATOM     27  N   UNL     1      -2.006  26.134   5.194  0.00  0.00    -0.299 N 
ATOM     28  H   UNL     1      -1.007  26.399   5.470  0.00  0.00    +0.150 HD
BRANCH  27  29
ATOM     29  C   UNL     1      -2.332  26.187   3.763  0.00  0.00    +0.106 C 
BRANCH  29  30
ATOM     30  C   UNL     1      -2.994  27.518   3.395  0.00  0.00    +0.025 C 
BRANCH  30  31
ATOM     31  C   UNL     1      -3.196  27.871   1.929  0.00  0.00    -0.036 C 
ATOM     32  C   UNL     1      -1.924  27.737   1.093  0.00  0.00    +0.011 C 
ATOM     33  C   UNL     1      -4.309  27.043   1.314  0.00  0.00    +0.011 C 
ATOM     34  C   UNL     1      -3.701  29.294   1.948  0.00  0.00    +0.011 C 
ENDBRANCH  30  31
ENDBRANCH  29  30
ENDBRANCH  27  29
ENDBRANCH   5   3
TORSDOF 5
