REMARK  Name = 4YJR
REMARK  7 active torsions:
REMARK  status: ('A' for Active; 'I' for Inactive)
REMARK    1  A    between atoms: C_1  and  N_2
REMARK    2  A    between atoms: C_7  and  N_8
REMARK    3  A    between atoms: N_15  and  C_16
REMARK    4  A    between atoms: N_15  and  C_20
REMARK    5  A    between atoms: C_16  and  C_17
REMARK    6  A    between atoms: C_17  and  C_18
REMARK    7  A    between atoms: C_18  and  O_19
REMARK                            x       y       z     vdW  Elec       q    Type
REMARK                         _______ _______ _______ _____ _____    ______ ____
ROOT
ATOM      7  N   UNL     1      34.706  39.672  34.348  0.00  0.00    -0.284 N 
ATOM      8  H   UNL     1      34.747  39.855  35.340  0.00  0.00    +0.155 HD
ATOM      9  C   UNL     1      33.504  39.250  33.889  0.00  0.00    +0.221 A 
ATOM     10  N   UNL     1      33.408  38.758  32.648  0.00  0.00    -0.199 NA
ATOM     11  C   UNL     1      32.199  38.341  32.256  0.00  0.00    +0.131 A 
ATOM     12  N   UNL     1      32.072  37.929  30.925  0.00  0.00    -0.284 N 
ATOM     28  C   UNL     1      31.102  38.341  33.110  0.00  0.00    +0.064 A 
ATOM     29  C   UNL     1      31.316  38.875  34.354  0.00  0.00    +0.118 A 
ATOM     30  N   UNL     1      32.504  39.332  34.776  0.00  0.00    -0.223 NA
ENDROOT
BRANCH   7   6
ATOM      1  C   UNL     1      40.928  40.327  32.149  0.00  0.00    +0.173 C 
ATOM      2  N   UNL     1      39.691  39.568  32.036  0.00  0.00    -0.267 N 
ATOM      3  C   UNL     1      38.525  39.754  32.716  0.00  0.00    +0.069 A 
ATOM      4  C   UNL     1      38.172  40.661  33.699  0.00  0.00    +0.030 A 
ATOM      5  C   UNL     1      36.891  40.609  34.209  0.00  0.00    +0.025 A 
ATOM      6  C   UNL     1      35.967  39.680  33.725  0.00  0.00    +0.034 A 
ATOM     31  C   UNL     1      36.333  38.748  32.759  0.00  0.00    +0.034 A 
ATOM     32  C   UNL     1      37.622  38.809  32.220  0.00  0.00    +0.021 A 
ATOM     33  C   UNL     1      38.363  38.074  31.265  0.00  0.00    +0.143 A 
ATOM     34  N   UNL     1      39.587  38.532  31.135  0.00  0.00    -0.179 NA
ENDBRANCH   7   6
BRANCH  12  13
ATOM     13  C   UNL     1      30.920  37.324  30.368  0.00  0.00    +0.046 A 
ATOM     14  C   UNL     1      30.542  36.037  30.798  0.00  0.00    +0.041 A 
ATOM     15  C   UNL     1      30.972  35.099  31.758  0.00  0.00    +0.144 A 
ATOM     16  N   UNL     1      30.222  34.015  31.745  0.00  0.00    -0.181 NA
ATOM     17  N   UNL     1      29.276  34.228  30.786  0.00  0.00    -0.277 N 
ATOM     18  H   UNL     1      28.543  33.572  30.569  0.00  0.00    +0.189 HD
ATOM     19  C   UNL     1      29.419  35.448  30.195  0.00  0.00    +0.068 A 
ATOM     20  C   UNL     1      28.693  36.087  29.199  0.00  0.00    +0.028 A 
ATOM     21  C   UNL     1      29.091  37.352  28.804  0.00  0.00    +0.004 A 
ATOM     22  C   UNL     1      30.168  37.980  29.402  0.00  0.00    +0.024 A 
ENDBRANCH  12  13
BRANCH  12  23
ATOM     23  C   UNL     1      33.240  37.922  30.041  0.00  0.00    +0.114 C 
BRANCH  23  24
ATOM     24  C   UNL     1      34.013  36.619  30.128  0.00  0.00    +0.047 C 
BRANCH  24  25
ATOM     25  C   UNL     1      35.205  36.655  29.203  0.00  0.00    +0.157 C 
BRANCH  25  26
ATOM     26  O   UNL     1      35.839  35.466  29.035  0.00  0.00    -0.395 OA
ATOM     27  H   UNL     1      35.604  35.063  28.184  0.00  0.00    +0.209 HD
ENDBRANCH  25  26
ENDBRANCH  24  25
ENDBRANCH  23  24
ENDBRANCH  12  23
TORSDOF 6
