REMARK  Name = 5CF4
REMARK  9 active torsions:
REMARK  status: ('A' for Active; 'I' for Inactive)
REMARK    1  A    between atoms: C_2  and  C_17
REMARK    2  A    between atoms: C_3  and  N_24
REMARK    3  A    between atoms: C_4  and  N_24
REMARK    4  A    between atoms: C_9  and  C_26
REMARK    5  A    between atoms: C_9  and  C_27
REMARK    6  A    between atoms: N_20  and  C_22
REMARK    7  A    between atoms: N_21  and  C_26
REMARK    8  A    between atoms: C_27  and  O_28
REMARK    9  A    between atoms: O_28  and  C_29
REMARK                            x       y       z     vdW  Elec       q    Type
REMARK                         _______ _______ _______ _____ _____    ______ ____
ROOT
ATOM      1  C   UNL     1       0.586  45.598   1.159  0.00  0.00    -0.000 C 
ENDROOT
TORSDOF 0
