REMARK  Name = 3pj3_ligand
REMARK  7 active torsions:
REMARK  status: ('A' for Active; 'I' for Inactive)
REMARK    1  A    between atoms: C1_1  and  C17_17
REMARK    2  A    between atoms: C5_5  and  C7_7
REMARK    3  A    between atoms: N9_9  and  C14_14
REMARK    4  A    between atoms: C11_11  and  C12_12
REMARK    5  A    between atoms: N13_13  and  C20_20
REMARK    6  A    between atoms: C15_15  and  C25_25
REMARK    7  A    between atoms: C19_19  and  C26_26
REMARK                            x       y       z     vdW  Elec       q    Type
REMARK                         _______ _______ _______ _____ _____    ______ ____
ROOT
ATOM     15  N   UNL     1     -20.832   4.991 -15.313  0.00  0.00    -0.233 N 
ATOM     16  H   UNL     1     -21.719   4.569 -15.124  0.00  0.00    +0.226 HD
ATOM     17  C   UNL     1     -20.111   5.369 -14.250  0.00  0.00    +0.225 C 
ATOM     18  O   UNL     1     -19.018   5.900 -14.353  0.00  0.00    -0.377 OA
ENDROOT
BRANCH  15  12
ATOM      1  C   UNL     1     -18.104   5.843 -20.407  0.00  0.00    +0.141 A 
ATOM      8  N   UNL     1     -17.810   5.876 -19.088  0.00  0.00    -0.247 N 
ATOM      9  H   UNL     1     -16.890   6.096 -18.681  0.00  0.00    +0.231 HD
ATOM     10  C   UNL     1     -18.926   5.572 -18.396  0.00  0.00    +0.095 A 
ATOM     11  C   UNL     1     -19.195   5.456 -17.035  0.00  0.00    +0.052 A 
ATOM     12  C   UNL     1     -20.488   5.119 -16.622  0.00  0.00    +0.082 A 
ATOM     13  C   UNL     1     -21.475   4.900 -17.590  0.00  0.00    +0.085 A 
ATOM     14  N   UNL     1     -21.193   5.008 -18.902  0.00  0.00    -0.313 NA
ATOM     38  C   UNL     1     -19.941   5.339 -19.317  0.00  0.00    +0.089 A 
ATOM     39  N   UNL     1     -19.411   5.519 -20.539  0.00  0.00    -0.295 NA
BRANCH   1   2
ATOM      2  C   UNL     1     -17.165   6.123 -21.533  0.00  0.00    +0.034 A 
ATOM      3  C   UNL     1     -15.948   6.771 -21.294  0.00  0.00    +0.022 A 
ATOM      4  C   UNL     1     -15.076   7.036 -22.351  0.00  0.00    +0.006 A 
ATOM      5  C   UNL     1     -15.419   6.656 -23.652  0.00  0.00    +0.007 A 
ATOM      6  C   UNL     1     -16.631   6.013 -23.892  0.00  0.00    +0.006 A 
ATOM      7  C   UNL     1     -17.500   5.749 -22.834  0.00  0.00    +0.022 A 
ENDBRANCH   1   2
ENDBRANCH  15  12
BRANCH  17  19
ATOM     19  C   UNL     1     -20.656   5.152 -12.870  0.00  0.00    +0.044 A 
ATOM     20  C   UNL     1     -20.605   3.900 -12.259  0.00  0.00    -0.039 A 
ATOM     21  C   UNL     1     -20.016   2.711 -12.977  0.00  0.00    +0.079 C 
ATOM     22  C   UNL     1     -21.116   3.752 -10.968  0.00  0.00    -0.014 A 
ATOM     23  C   UNL     1     -21.673   4.847 -10.298  0.00  0.00    +0.010 A 
ATOM     24  C   UNL     1     -21.722   6.104 -10.907  0.00  0.00    +0.064 A 
ATOM     37  C   UNL     1     -21.201   6.243 -12.194  0.00  0.00    +0.026 A 
BRANCH  24  25
ATOM     25  N   UNL     1     -22.271   7.158 -10.233  0.00  0.00    -0.238 N 
ATOM     26  H   UNL     1     -22.046   7.254  -9.263  0.00  0.00    +0.222 HD
ATOM     27  C   UNL     1     -23.090   8.076 -10.774  0.00  0.00    +0.218 C 
ATOM     28  O   UNL     1     -23.398   8.028 -11.961  0.00  0.00    -0.380 OA
BRANCH  27  29
ATOM     29  C   UNL     1     -23.597   9.082 -10.003  0.00  0.00    +0.084 C 
ATOM     30  C   UNL     1     -24.809   9.417 -10.130  0.00  0.00    +0.037 C 
BRANCH  30  31
ATOM     31  C   UNL     1     -25.463  10.498  -9.344  0.00  0.00    -0.015 A 
ATOM     32  C   UNL     1     -25.458  10.482  -7.946  0.00  0.00    +0.015 A 
ATOM     33  C   UNL     1     -26.087  11.501  -7.228  0.00  0.00    +0.004 A 
ATOM     34  C   UNL     1     -26.732  12.538  -7.907  0.00  0.00    +0.005 A 
ATOM     35  C   UNL     1     -26.743  12.556  -9.301  0.00  0.00    +0.004 A 
ATOM     36  C   UNL     1     -26.114  11.533 -10.016  0.00  0.00    +0.015 A 
ENDBRANCH  30  31
ENDBRANCH  27  29
ENDBRANCH  24  25
ENDBRANCH  17  19
TORSDOF 6
