REMARK  Name = 4bcm_ligand
REMARK  8 active torsions:
REMARK  status: ('A' for Active; 'I' for Inactive)
REMARK    1  A    between atoms: C01_1  and  N02_2
REMARK    2  A    between atoms: C05_5  and  C06_6
REMARK    3  A    between atoms: C07_7  and  C08_8
REMARK    4  A    between atoms: N11_11  and  C12_12
REMARK    5  A    between atoms: C14_14  and  S15_15
REMARK    6  A    between atoms: S15_15  and  N16_16
REMARK    7  A    between atoms: C24_24  and  C25_25
REMARK    8  A    between atoms: C30_30  and  C31_31
REMARK                            x       y       z     vdW  Elec       q    Type
REMARK                         _______ _______ _______ _____ _____    ______ ____
ROOT
ATOM      7  C   UNL     1       7.557  22.046  23.325  0.00  0.00    +0.069 A 
ATOM      8  C   UNL     1       8.927  22.087  23.047  0.00  0.00    +0.120 A 
ATOM     11  C   UNL     1       9.746  22.963  23.816  0.00  0.00    +0.132 A 
ATOM     12  N   UNL     1       9.185  23.723  24.775  0.00  0.00    -0.254 NA
ATOM     13  C   UNL     1       7.873  23.666  25.016  0.00  0.00    +0.201 A 
ATOM     14  N   UNL     1       7.345  24.498  26.068  0.00  0.00    -0.243 N 
ATOM     15  H   UNL     1       7.949  24.654  26.888  0.00  0.00    +0.219 HD
ATOM     32  N   UNL     1       7.066  22.834  24.316  0.00  0.00    -0.258 NA
ENDROOT
BRANCH   7   6
ATOM      1  C   UNL     1       2.803  18.721  20.410  0.00  0.00    +0.175 C 
ATOM      2  N   UNL     1       3.195  20.036  20.821  0.00  0.00    -0.280 N 
ATOM      3  H   UNL     1       2.554  20.832  20.690  0.00  0.00    +0.195 HD
ATOM      4  C   UNL     1       4.513  20.243  21.429  0.00  0.00    +0.193 A 
ATOM      5  S   UNL     1       5.065  21.630  22.147  0.00  0.00    +0.021 S 
ATOM      6  C   UNL     1       6.566  21.140  22.573  0.00  0.00    +0.069 A 
ATOM     33  C   UNL     1       6.760  19.759  22.168  0.00  0.00    +0.011 A 
ATOM     34  C   UNL     1       8.007  18.896  22.377  0.00  0.00    +0.107 C 
ATOM     35  N   UNL     1       5.516  19.244  21.477  0.00  0.00    -0.286 NA
ENDBRANCH   7   6
BRANCH  14  16
ATOM     16  C   UNL     1       6.028  25.143  26.080  0.00  0.00    +0.063 A 
ATOM     17  C   UNL     1       5.598  25.671  27.307  0.00  0.00    +0.009 A 
ATOM     18  C   UNL     1       4.339  26.308  27.425  0.00  0.00    -0.014 A 
ATOM     19  C   UNL     1       3.514  26.415  26.316  0.00  0.00    -0.030 A 
ATOM     20  C   UNL     1       2.198  27.097  26.497  0.00  0.00    +0.077 C 
ATOM     21  C   UNL     1       3.930  25.891  25.066  0.00  0.00    +0.101 A 
ATOM     31  C   UNL     1       5.197  25.243  24.954  0.00  0.00    +0.037 A 
BRANCH  21  22
ATOM     22  S   UNL     1       2.852  26.034  23.612  0.00  0.00    +0.066 S 
ATOM     23  O   UNL     1       3.579  25.792  22.395  0.00  0.00    -0.151 OA
ATOM     24  O   UNL     1       2.274  27.350  23.558  0.00  0.00    -0.151 OA
BRANCH  22  25
ATOM     25  N   UNL     1       1.713  24.862  23.751  0.00  0.00    -0.231 NA
ATOM     26  C   UNL     1       2.092  23.564  23.835  0.00  0.00    +0.153 C 
ATOM     27  C   UNL     1       0.940  22.635  24.022  0.00  0.00    +0.180 C 
ATOM     28  O   UNL     1      -0.202  22.986  23.188  0.00  0.00    -0.377 OA
ATOM     29  C   UNL     1      -0.564  24.359  23.501  0.00  0.00    +0.180 C 
ATOM     30  C   UNL     1       0.561  25.291  23.187  0.00  0.00    +0.153 C 
ENDBRANCH  22  25
ENDBRANCH  21  22
ENDBRANCH  14  16
BRANCH   8   9
ATOM      9  C   UNL     1       9.557  21.258  21.974  0.00  0.00    +0.089 C 
ATOM     10  N   UNL     1      10.068  20.625  21.152  0.00  0.00    -0.343 NA
ENDBRANCH   8   9
TORSDOF 5
