REMARK  Name = M04
REMARK  3 active torsions:
REMARK  status: ('A' for Active; 'I' for Inactive)
REMARK    1  A    between atoms: C5_4  and  C4_25
REMARK    2  A    between atoms: C9_8  and  C13_17
REMARK    3  A    between atoms: C13_17  and  C4_25
REMARK                            x       y       z     vdW  Elec       q    Type
REMARK                         _______ _______ _______ _____ _____    ______ ____
ROOT
ATOM      1  N   UNL     1       7.383   9.830   3.238  0.00  0.00    -0.293 N 
ATOM      2  C   UNL     1       8.142   9.929   4.496  0.00  0.00    +0.092 C 
ATOM      3  C   UNL     1       9.601  10.282   4.235  0.00  0.00    +0.023 C 
ATOM      4  C   UNL     1      10.292   9.295   3.286  0.00  0.00    +0.025 C 
ATOM     15  C   UNL     1       9.463   9.277   2.000  0.00  0.00    +0.023 C 
ATOM     16  C   UNL     1       5.956   9.786   3.408  0.00  0.00    +0.133 A 
ATOM     17  N   UNL     1       5.490   9.858   4.668  0.00  0.00    -0.209 NA
ATOM     18  C   UNL     1       4.166   9.827   4.851  0.00  0.00    +0.201 A 
ATOM     19  N   UNL     1       3.201   9.721   3.936  0.00  0.00    -0.205 NA
ATOM     20  C   UNL     1       3.699   9.653   2.694  0.00  0.00    +0.163 A 
ATOM     21  N   UNL     1       2.971   9.529   1.547  0.00  0.00    -0.230 NA
ATOM     22  C   UNL     1       3.804   9.503   0.478  0.00  0.00    +0.079 C 
ATOM     23  C   UNL     1       5.096   9.598   0.930  0.00  0.00    +0.079 C 
ATOM     24  C   UNL     1       5.038   9.698   2.353  0.00  0.00    +0.051 A 
ATOM     25  C   UNL     1       8.005   8.922   2.259  0.00  0.00    +0.092 C 
ENDROOT
BRANCH   4   5
ATOM      5  C   UNL     1      10.290   7.913   3.967  0.00  0.00    +0.110 C 
ATOM      6  N   UNL     1      10.967   6.884   3.131  0.00  0.00    -0.131 NA
ENDBRANCH   4   5
BRANCH   4   7
ATOM      7  C   UNL     1      11.757   9.698   3.059  0.00  0.00    +0.028 C 
BRANCH   7   8
ATOM      8  C   UNL     1      12.018  10.831   2.104  0.00  0.00    -0.022 A 
ATOM      9  C   UNL     1      12.138  12.130   2.570  0.00  0.00    -0.003 A 
ATOM     10  C   UNL     1      12.426  13.162   1.702  0.00  0.00    +0.011 A 
ATOM     11  C   UNL     1      12.602  12.906   0.354  0.00  0.00    +0.058 A 
ATOM     12  C   UNL     1      12.503  11.611  -0.115  0.00  0.00    +0.011 A 
ATOM     13 CL   UNL     1      13.016  14.193  -0.734  0.00  0.00    -0.082 Cl
ATOM     14  C   UNL     1      12.216  10.579   0.755  0.00  0.00    -0.003 A 
ENDBRANCH   7   8
ENDBRANCH   4   7
TORSDOF 3
