REMARK  Name = 3O51
REMARK  8 active torsions:
REMARK  status: ('A' for Active; 'I' for Inactive)
REMARK    1  A    between atoms: C_1  and  N_2
REMARK    2  A    between atoms: C_9  and  C_10
REMARK    3  A    between atoms: C_15  and  O_16
REMARK    4  A    between atoms: O_16  and  C_17
REMARK    5  A    between atoms: C_22  and  N_23
REMARK    6  A    between atoms: C_24  and  C_26
REMARK    7  A    between atoms: C_31  and  N_32
REMARK    8  A    between atoms: N_32  and  C_33
REMARK                            x       y       z     vdW  Elec       q    Type
REMARK                         _______ _______ _______ _____ _____    ______ ____
ROOT
ATOM     12  C   UNL     1      21.967  13.718  21.352  0.00  0.00    +0.131 A 
ATOM     13  C   UNL     1      22.607  12.748  20.586  0.00  0.00    +0.048 A 
ATOM     14  C   UNL     1      21.915  12.110  19.555  0.00  0.00    +0.027 A 
ATOM     15  C   UNL     1      20.577  12.408  19.276  0.00  0.00    +0.034 A 
ATOM     34  C   UNL     1      19.952  13.398  20.029  0.00  0.00    +0.027 A 
ATOM     35  C   UNL     1      20.642  14.041  21.061  0.00  0.00    +0.048 A 
ENDROOT
BRANCH  15  16
ATOM     16  N   UNL     1      19.953  11.799  18.254  0.00  0.00    -0.281 N 
ATOM     17  H   UNL     1      19.391  12.411  17.580  0.00  0.00    +0.155 HD
ATOM     18  C   UNL     1      19.983  10.485  18.019  0.00  0.00    +0.250 C 
ATOM     33  O   UNL     1      20.566   9.683  18.742  0.00  0.00    -0.270 OA
BRANCH  18  19
ATOM     19  C   UNL     1      19.267  10.002  16.734  0.00  0.00    +0.058 A 
ATOM     20  C   UNL     1      18.618   8.765  16.629  0.00  0.00    +0.044 A 
ATOM     29  C   UNL     1      18.021   8.399  15.419  0.00  0.00    +0.024 A 
ATOM     30  C   UNL     1      18.066   9.232  14.308  0.00  0.00    +0.002 A 
ATOM     31  C   UNL     1      18.719  10.451  14.406  0.00  0.00    +0.001 A 
ATOM     32  C   UNL     1      19.318  10.826  15.606  0.00  0.00    +0.015 A 
BRANCH  20  21
ATOM     21  N   UNL     1      18.557   7.945  17.681  0.00  0.00    -0.314 N 
ATOM     22  H   UNL     1      19.215   8.144  18.501  0.00  0.00    +0.152 HD
BRANCH  21  23
ATOM     23  C   UNL     1      17.735   6.891  17.789  0.00  0.00    +0.031 A 
ATOM     24  C   UNL     1      16.436   6.903  17.260  0.00  0.00    +0.023 A 
ATOM     25  C   UNL     1      15.603   5.788  17.388  0.00  0.00    +0.002 A 
ATOM     26  C   UNL     1      16.065   4.655  18.064  0.00  0.00    +0.000 A 
ATOM     27  C   UNL     1      17.353   4.638  18.605  0.00  0.00    +0.002 A 
ATOM     28  C   UNL     1      18.182   5.756  18.470  0.00  0.00    +0.023 A 
ENDBRANCH  21  23
ENDBRANCH  20  21
ENDBRANCH  18  19
ENDBRANCH  15  16
BRANCH  12  11
ATOM     11  O   UNL     1      22.596  14.405  22.357  0.00  0.00    -0.437 OA
BRANCH  11  10
ATOM      9  C   UNL     1      24.784  14.543  23.380  0.00  0.00    +0.065 A 
ATOM     10  C   UNL     1      23.547  13.884  23.201  0.00  0.00    +0.230 A 
ATOM     36  N   UNL     1      23.276  12.759  23.900  0.00  0.00    -0.220 NA
ATOM     37  C   UNL     1      24.149  12.226  24.746  0.00  0.00    +0.114 A 
ATOM     38  C   UNL     1      25.389  12.826  24.958  0.00  0.00    +0.021 A 
ATOM     39  C   UNL     1      25.710  13.990  24.266  0.00  0.00    +0.017 A 
BRANCH   9   8
ATOM      1  C   UNL     1      26.840  18.908  24.873  0.00  0.00    +0.128 C 
ATOM      2  N   UNL     1      26.312  19.019  23.499  0.00  0.00    -0.317 N 
ATOM      3  H   UNL     1      26.240  19.988  23.051  0.00  0.00    +0.149 HD
ATOM      4  C   UNL     1      25.920  17.951  22.794  0.00  0.00    +0.216 A 
ATOM      5  N   UNL     1      25.897  18.048  21.449  0.00  0.00    -0.220 NA
ATOM      6  C   UNL     1      25.514  17.022  20.703  0.00  0.00    +0.155 A 
ATOM      7  C   UNL     1      25.129  15.827  21.313  0.00  0.00    +0.168 A 
ATOM      8  C   UNL     1      25.146  15.725  22.709  0.00  0.00    +0.116 A 
ATOM     40  F   UNL     1      24.743  14.789  20.549  0.00  0.00    -0.202 F 
ATOM     41  N   UNL     1      25.550  16.803  23.417  0.00  0.00    -0.211 NA
ENDBRANCH   9   8
ENDBRANCH  11  10
ENDBRANCH  12  11
TORSDOF 7
