REMARK  Name = 3Q4T
REMARK  6 active torsions:
REMARK  status: ('A' for Active; 'I' for Inactive)
REMARK    1  A    between atoms: N_6  and  C_7
REMARK    2  A    between atoms: C_7  and  C_8
REMARK    3  A    between atoms: C_8  and  O_9
REMARK    4  A    between atoms: O_9  and  C_10
REMARK    5  A    between atoms: C_15  and  C_16
REMARK    6  A    between atoms: C_24  and  C_25
REMARK                            x       y       z     vdW  Elec       q    Type
REMARK                         _______ _______ _______ _____ _____    ______ ____
ROOT
ATOM     10  C   UNL     1     -45.506  52.053  -1.770  0.00  0.00    -0.001 C 
ATOM     11  C   UNL     1     -45.980  53.357  -1.545  0.00  0.00    +0.181 C 
ATOM     12  N   UNL     1     -45.194  54.445  -1.639  0.00  0.00    -0.260 NA
ATOM     13  C   UNL     1     -43.881  54.341  -1.950  0.00  0.00    +0.157 A 
ATOM     14  C   UNL     1     -42.853  55.251  -2.131  0.00  0.00    +0.043 A 
ATOM     21  C   UNL     1     -41.770  54.499  -2.422  0.00  0.00    +0.114 A 
ATOM     22  N   UNL     1     -42.091  53.192  -2.446  0.00  0.00    -0.298 N 
ATOM     23  H   UNL     1     -41.412  52.392  -2.656  0.00  0.00    +0.187 HD
ATOM     24  N   UNL     1     -43.303  53.060  -2.185  0.00  0.00    -0.244 N 
ATOM     25  C   UNL     1     -44.140  51.905  -2.061  0.00  0.00    +0.118 C 
ENDROOT
BRANCH  10   9
ATOM      6  C   UNL     1     -47.959  48.557  -1.538  0.00  0.00    +0.121 A 
ATOM      7  C   UNL     1     -48.447  49.783  -1.040  0.00  0.00    +0.046 A 
ATOM      8  C   UNL     1     -47.644  50.938  -1.107  0.00  0.00    +0.012 A 
ATOM      9  C   UNL     1     -46.346  50.902  -1.682  0.00  0.00    -0.018 A 
ATOM     26  C   UNL     1     -45.895  49.666  -2.189  0.00  0.00    +0.012 A 
ATOM     27  C   UNL     1     -46.683  48.512  -2.111  0.00  0.00    +0.046 A 
BRANCH   6   5
ATOM      5  O   UNL     1     -48.697  47.401  -1.508  0.00  0.00    -0.491 OA
BRANCH   5   4
ATOM      4  C   UNL     1     -49.241  46.985  -0.211  0.00  0.00    +0.244 C 
BRANCH   4   3
ATOM      3  C   UNL     1     -48.431  45.922   0.584  0.00  0.00    +0.125 C 
BRANCH   3   2
ATOM      1  C   UNL     1     -46.784  44.166   0.316  0.00  0.00    +0.084 C 
ATOM      2  N   UNL     1     -48.038  44.742  -0.227  0.00  0.00    -0.299 NA
ATOM     28  C   UNL     1     -49.106  43.713  -0.221  0.00  0.00    +0.084 C 
ATOM     29  C   UNL     1     -48.717  42.523  -1.126  0.00  0.00    +0.015 C 
ATOM     30  C   UNL     1     -47.343  41.932  -0.755  0.00  0.00    +0.002 C 
ATOM     31  C   UNL     1     -46.271  43.022  -0.581  0.00  0.00    +0.015 C 
ENDBRANCH   3   2
ENDBRANCH   4   3
ENDBRANCH   5   4
ENDBRANCH   6   5
ENDBRANCH  10   9
BRANCH  14  15
ATOM     15  C   UNL     1     -42.944  56.658  -1.981  0.00  0.00    -0.010 A 
ATOM     16  C   UNL     1     -43.718  57.261  -0.959  0.00  0.00    +0.028 A 
ATOM     17  C   UNL     1     -43.782  58.665  -0.837  0.00  0.00    +0.111 A 
ATOM     18  N   UNL     1     -43.106  59.474  -1.664  0.00  0.00    -0.263 NA
ATOM     19  C   UNL     1     -42.351  58.932  -2.633  0.00  0.00    +0.111 A 
ATOM     20  C   UNL     1     -42.258  57.534  -2.839  0.00  0.00    +0.028 A 
ENDBRANCH  14  15
TORSDOF 6
