REMARK  Name = 5N65
REMARK  6 active torsions:
REMARK  status: ('A' for Active; 'I' for Inactive)
REMARK    1  A    between atoms: C_1  and  N_18
REMARK    2  A    between atoms: C_11  and  C_12
REMARK    3  A    between atoms: C_14  and  N_15
REMARK    4  A    between atoms: N_18  and  C_19
REMARK    5  A    between atoms: C_19  and  C_20
REMARK    6  A    between atoms: C_20  and  C_21
REMARK                            x       y       z     vdW  Elec       q    Type
REMARK                         _______ _______ _______ _____ _____    ______ ____
ROOT
ATOM      1  C   UNL     1      21.031   1.155 -21.181  0.00  0.00    +0.130 A 
ATOM     11  N   UNL     1      21.837   0.085 -21.206  0.00  0.00    -0.212 NA
ATOM     12  C   UNL     1      21.497  -1.067 -20.611  0.00  0.00    +0.162 A 
ATOM     19  N   UNL     1      20.334  -1.178 -19.946  0.00  0.00    -0.227 NA
ATOM     20  C   UNL     1      19.487  -0.131 -19.874  0.00  0.00    +0.078 A 
ATOM     21  C   UNL     1      18.280  -0.254 -19.184  0.00  0.00    +0.051 A 
ATOM     22  C   UNL     1      17.399   0.824 -19.105  0.00  0.00    +0.027 A 
ATOM     23  C   UNL     1      17.719   2.028 -19.715  0.00  0.00    +0.023 A 
ATOM     24  C   UNL     1      18.921   2.146 -20.394  0.00  0.00    +0.015 A 
ATOM     28  C   UNL     1      19.814   1.079 -20.490  0.00  0.00    +0.040 A 
ENDROOT
BRANCH  12  13
ATOM     13  C   UNL     1      22.403  -2.120 -20.702  0.00  0.00    +0.019 A 
ATOM     14  C   UNL     1      23.552  -1.923 -21.458  0.00  0.00    +0.012 A 
ATOM     15  C   UNL     1      24.499  -2.930 -21.584  0.00  0.00    +0.001 A 
ATOM     16  C   UNL     1      24.297  -4.144 -20.941  0.00  0.00    +0.000 A 
ATOM     17  C   UNL     1      23.152  -4.343 -20.177  0.00  0.00    +0.001 A 
ATOM     18  C   UNL     1      22.202  -3.332 -20.052  0.00  0.00    +0.012 A 
ENDBRANCH  12  13
BRANCH  22  25
ATOM     25  N   UNL     1      16.248   0.705 -18.448  0.00  0.00    -0.358 N 
ATOM     26  H   UNL     1      15.576   1.536 -18.391  0.00  0.00    +0.142 HD
ATOM     27  H   UNL     1      15.994  -0.222 -17.977  0.00  0.00    +0.142 HD
ENDBRANCH  22  25
BRANCH   1   2
ATOM      2  N   UNL     1      21.425   2.294 -21.784  0.00  0.00    -0.328 N 
ATOM      3  H   UNL     1      22.384   2.671 -21.498  0.00  0.00    +0.147 HD
BRANCH   2   4
ATOM      4  C   UNL     1      20.688   3.085 -22.795  0.00  0.00    +0.108 C 
BRANCH   4   5
ATOM      5  C   UNL     1      21.274   2.848 -24.184  0.00  0.00    +0.061 C 
BRANCH   5   6
ATOM      6  C   UNL     1      20.913   1.427 -24.614  0.00  0.00    -0.009 A 
ATOM      7  C   UNL     1      21.786   0.529 -25.064  0.00  0.00    +0.011 A 
ATOM      8  C   UNL     1      21.224  -0.654 -25.363  0.00  0.00    +0.008 A 
ATOM      9  C   UNL     1      19.904  -0.712 -25.146  0.00  0.00    +0.045 A 
ATOM     10  S   UNL     1      19.433   0.765 -24.566  0.00  0.00    -0.102 S 
ENDBRANCH   5   6
ENDBRANCH   4   5
ENDBRANCH   2   4
ENDBRANCH   1   2
TORSDOF 6
