REMARK  Name = 3CKX
REMARK  5 active torsions:
REMARK  status: ('A' for Active; 'I' for Inactive)
REMARK    1  A    between atoms: C_4  and  N_34
REMARK    2  A    between atoms: C_5  and  O_32
REMARK    3  A    between atoms: C_6  and  C_7
REMARK    4  A    between atoms: O_32  and  C_33
REMARK    5  A    between atoms: N_34  and  C_35
REMARK                            x       y       z     vdW  Elec       q    Type
REMARK                         _______ _______ _______ _____ _____    ______ ____
ROOT
ATOM      1  O   UNL     1     -14.049   0.647  10.080  0.00  0.00    -0.328 OA
ATOM      2  C   UNL     1     -12.677   0.345   9.999  0.00  0.00    +0.174 C 
ATOM      3  N   UNL     1     -12.398  -1.090  10.049  0.00  0.00    -0.307 N 
ATOM      4  C   UNL     1     -11.379  -1.795   9.437  0.00  0.00    +0.053 A 
ATOM      5  C   UNL     1     -10.350  -1.382   8.584  0.00  0.00    +0.026 A 
ATOM      6  C   UNL     1      -9.473  -2.350   8.120  0.00  0.00    +0.002 A 
ATOM      7  C   UNL     1      -9.591  -3.684   8.476  0.00  0.00    +0.001 A 
ATOM      8  C   UNL     1     -10.595  -4.119   9.320  0.00  0.00    +0.010 A 
ATOM      9  C   UNL     1     -11.489  -3.159   9.795  0.00  0.00    +0.008 A 
ATOM     10  C   UNL     1     -12.645  -3.272  10.683  0.00  0.00    +0.015 A 
ATOM     11  C   UNL     1     -13.257  -4.327  11.351  0.00  0.00    -0.008 A 
ATOM     12  C   UNL     1     -12.952  -5.795  11.419  0.00  0.00    +0.141 C 
ATOM     13  N   UNL     1     -13.971  -6.371  12.295  0.00  0.00    -0.307 N 
ATOM     14  H   UNL     1     -14.049  -7.405  12.560  0.00  0.00    +0.149 HD
ATOM     15  C   UNL     1     -14.790  -5.398  12.712  0.00  0.00    +0.245 C 
ATOM     16  O   UNL     1     -15.737  -5.562  13.451  0.00  0.00    -0.270 OA
ATOM     17  C   UNL     1     -14.378  -4.115  12.145  0.00  0.00    +0.052 A 
ATOM     18  C   UNL     1     -14.900  -2.810  12.286  0.00  0.00    +0.022 A 
ATOM     19  C   UNL     1     -16.021  -2.244  13.016  0.00  0.00    +0.009 A 
ATOM     20  C   UNL     1     -16.978  -2.837  13.848  0.00  0.00    +0.010 A 
ATOM     21  C   UNL     1     -17.936  -1.998  14.401  0.00  0.00    +0.001 A 
ATOM     22  C   UNL     1     -17.949  -0.636  14.137  0.00  0.00    +0.002 A 
ATOM     23  C   UNL     1     -17.007  -0.029  13.312  0.00  0.00    +0.026 A 
ATOM     24  C   UNL     1     -16.027  -0.848  12.741  0.00  0.00    +0.052 A 
ATOM     25  N   UNL     1     -14.956  -0.586  11.886  0.00  0.00    -0.312 N 
ATOM     26  C   UNL     1     -14.293  -1.740  11.615  0.00  0.00    +0.077 A 
ATOM     27  C   UNL     1     -13.162  -1.972  10.808  0.00  0.00    +0.077 A 
ATOM     28  C   UNL     1     -12.223   0.908   8.644  0.00  0.00    +0.069 C 
ATOM     29  C   UNL     1     -11.795   1.056  11.019  0.00  0.00    +0.187 C 
ATOM     32  C   UNL     1     -12.593   2.206  11.656  0.00  0.00    +0.091 C 
ATOM     36  C   UNL     1     -13.830   1.581  12.345  0.00  0.00    +0.076 C 
ATOM     37  C   UNL     1     -14.622   0.732  11.356  0.00  0.00    +0.224 C 
ENDROOT
BRANCH  32  33
ATOM     33  N   UNL     1     -11.698   2.961  12.565  0.00  0.00    -0.314 NA
ATOM     34  H   UNL     1     -11.475   3.911  12.125  0.00  0.00    +0.122 HD
ATOM     35  C   UNL     1     -12.330   3.177  13.880  0.00  0.00    +0.101 C 
ENDBRANCH  32  33
BRANCH  29  30
ATOM     30  O   UNL     1     -11.453   0.134  12.063  0.00  0.00    -0.374 OA
ATOM     31  C   UNL     1     -10.032   0.087  12.200  0.00  0.00    +0.194 C 
ENDBRANCH  29  30
TORSDOF 2
