REMARK  Name = 2yiw_ligand
REMARK  13 active torsions:
REMARK  status: ('A' for Active; 'I' for Inactive)
REMARK    1  A    between atoms: C1_1  and  C2_2
REMARK    2  A    between atoms: C2_2  and  C3_3
REMARK    3  A    between atoms: C2_2  and  C4_4
REMARK    4  A    between atoms: C10_10  and  S11_11
REMARK    5  A    between atoms: S11_11  and  C12_12
REMARK    6  A    between atoms: C17_17  and  C18_18
REMARK    7  A    between atoms: C18_18  and  N19_19
REMARK    8  A    between atoms: N22_22  and  C23_23
REMARK    9  A    between atoms: C25_25  and  C34_34
REMARK   10  A    between atoms: N27_27  and  C28_28
REMARK   11  A    between atoms: C34_34  and  C35_35
REMARK   12  A    between atoms: C34_34  and  C36_36
REMARK   13  A    between atoms: C34_34  and  C37_37
REMARK                            x       y       z     vdW  Elec       q    Type
REMARK                         _______ _______ _______ _____ _____    ______ ____
ROOT
ATOM     11  N   UNL     1      -2.317   3.124  15.849  0.00  0.00    -0.257 N 
ATOM     12  H   UNL     1      -2.984   3.808  15.555  0.00  0.00    +0.188 HD
ATOM     13  C   UNL     1      -1.208   2.896  15.139  0.00  0.00    +0.295 C 
ATOM     14  N   UNL     1      -0.934   3.704  14.164  0.00  0.00    -0.185 N 
ATOM     15  H   UNL     1      -1.582   4.447  13.995  0.00  0.00    +0.234 HD
ATOM     31  O   UNL     1      -0.293   2.051  15.461  0.00  0.00    -0.389 OA
ENDROOT
BRANCH  14  16
ATOM     16  C   UNL     1       0.194   3.633  13.319  0.00  0.00    +0.219 A 
ATOM     17  N   UNL     1       0.557   4.674  12.592  0.00  0.00    -0.103 N 
ATOM     24  N   UNL     1       1.755   4.357  11.974  0.00  0.00    -0.165 NA
ATOM     25  C   UNL     1       2.064   3.138  12.153  0.00  0.00    -0.002 A 
ATOM     30  C   UNL     1       1.093   2.626  13.060  0.00  0.00    +0.003 A 
BRANCH  17  18
ATOM     18  C   UNL     1       0.026   5.998  12.604  0.00  0.00    +0.129 A 
ATOM     19  C   UNL     1      -0.396   6.572  13.782  0.00  0.00    +0.040 A 
ATOM     20  C   UNL     1      -0.914   7.879  13.819  0.00  0.00    -0.002 A 
ATOM     21  C   UNL     1      -0.946   8.610  12.635  0.00  0.00    -0.008 A 
ATOM     22  C   UNL     1      -0.520   8.070  11.439  0.00  0.00    -0.002 A 
ATOM     23  C   UNL     1      -0.011   6.769  11.405  0.00  0.00    +0.040 A 
ENDBRANCH  17  18
BRANCH  25  26
ATOM     26  C   UNL     1       3.254   2.438  11.547  0.00  0.00    -0.045 C 
ATOM     27  C   UNL     1       3.923   1.592  12.556  0.00  0.00    -0.045 C 
ATOM     28  C   UNL     1       4.297   3.407  10.979  0.00  0.00    -0.045 C 
ATOM     29  C   UNL     1       2.765   1.497  10.446  0.00  0.00    -0.045 C 
ENDBRANCH  25  26
ENDBRANCH  14  16
BRANCH  11  10
ATOM     10  C   UNL     1      -2.532   2.330  17.092  0.00  0.00    +0.198 C 
BRANCH  10   9
ATOM      8  C   UNL     1      -4.086   0.989  18.473  0.00  0.00    +0.031 A 
ATOM      9  C   UNL     1      -3.805   1.585  17.237  0.00  0.00    -0.007 A 
ATOM     32  C   UNL     1      -4.651   1.427  16.155  0.00  0.00    -0.010 A 
ATOM     33  C   UNL     1      -5.802   0.630  16.300  0.00  0.00    -0.021 A 
ATOM     34  C   UNL     1      -6.145   0.057  17.523  0.00  0.00    -0.020 A 
ATOM     35  C   UNL     1      -5.306   0.233  18.595  0.00  0.00    +0.000 A 
BRANCH   8   7
ATOM      7  S   UNL     1      -2.934   1.200  19.817  0.00  0.00    -0.054 S 
BRANCH   7   6
ATOM      3  C   UNL     1      -1.654  -2.496  23.218  0.00  0.00    +0.152 A 
ATOM      4  N   UNL     1      -2.025  -1.986  22.016  0.00  0.00    -0.176 N 
ATOM      5  C   UNL     1      -2.292  -0.677  21.581  0.00  0.00    +0.212 A 
ATOM      6  C   UNL     1      -2.633  -0.450  20.292  0.00  0.00    +0.065 A 
ATOM     36  C   UNL     1      -2.737  -1.521  19.397  0.00  0.00    +0.024 A 
ATOM     37  C   UNL     1      -2.484  -2.842  19.800  0.00  0.00    +0.043 A 
ATOM     38  C   UNL     1      -2.125  -3.054  21.150  0.00  0.00    +0.143 A 
ATOM     39  N   UNL     1      -1.814  -4.126  21.820  0.00  0.00    -0.297 NA
ATOM     40  N   UNL     1      -1.533  -3.804  23.035  0.00  0.00    -0.280 NA
BRANCH   3   2
ATOM      1  C   UNL     1      -2.677  -1.147  25.057  0.00  0.00    +0.030 C 
ATOM      2  C   UNL     1      -1.383  -1.713  24.501  0.00  0.00    +0.085 C 
ATOM     41  C   UNL     1      -0.937  -2.645  25.640  0.00  0.00    +0.030 C 
ENDBRANCH   3   2
ENDBRANCH   7   6
ENDBRANCH   8   7
ENDBRANCH  10   9
ENDBRANCH  11  10
TORSDOF 8
