REMARK  Name = 3ro4_ligand
REMARK  4 active torsions:
REMARK  status: ('A' for Active; 'I' for Inactive)
REMARK    1  A    between atoms: C01_1  and  C02_2
REMARK    2  A    between atoms: C02_2  and  C03_3
REMARK    3  A    between atoms: N05_5  and  C20_20
REMARK    4  A    between atoms: C08_8  and  N12_12
REMARK                            x       y       z     vdW  Elec       q    Type
REMARK                         _______ _______ _______ _____ _____    ______ ____
ROOT
ATOM      3  C   UNL     1      -3.271  -0.637  17.335  0.00  0.00    +0.029 A 
ATOM      4  C   UNL     1      -4.237   0.246  17.965  0.00  0.00    +0.008 A 
ATOM      5  C   UNL     1      -4.699   1.527  17.722  0.00  0.00    -0.011 A 
ATOM      6  C   UNL     1      -5.653   2.067  18.553  0.00  0.00    -0.004 A 
ATOM      7  C   UNL     1      -6.167   1.320  19.660  0.00  0.00    +0.033 A 
ATOM     18  C   UNL     1      -5.723   0.029  19.916  0.00  0.00    +0.026 A 
ATOM     19  C   UNL     1      -4.753  -0.508  19.058  0.00  0.00    +0.092 A 
ATOM     20  N   UNL     1      -4.053  -1.725  19.045  0.00  0.00    -0.171 N 
ATOM     27  N   UNL     1      -3.202  -1.814  17.967  0.00  0.00    -0.210 NA
ENDROOT
BRANCH   7   8
ATOM      8  N   UNL     1      -7.203   1.844  20.526  0.00  0.00    -0.310 N 
ATOM      9  C   UNL     1      -7.973   0.812  21.295  0.00  0.00    +0.139 C 
ATOM     10  C   UNL     1      -9.348   1.418  21.622  0.00  0.00    +0.066 C 
ATOM     11  C   UNL     1      -9.622   1.477  23.132  0.00  0.00    +0.135 C 
ATOM     12  N   UNL     1      -9.009   2.751  23.566  0.00  0.00    +0.228 N 
ATOM     13  H   UNL     1      -8.019   2.621  23.774  0.00  0.00    +0.201 HD
ATOM     14  H   UNL     1      -9.454   3.092  24.418  0.00  0.00    +0.201 HD
ATOM     15  C   UNL     1      -9.187   3.723  22.459  0.00  0.00    +0.135 C 
ATOM     16  C   UNL     1      -9.282   2.892  21.165  0.00  0.00    +0.066 C 
ATOM     17  C   UNL     1      -8.069   3.028  20.216  0.00  0.00    +0.139 C 
ENDBRANCH   7   8
BRANCH  20  21
ATOM     21  C   UNL     1      -4.313  -2.835  19.938  0.00  0.00    +0.099 A 
ATOM     22  C   UNL     1      -4.442  -2.629  21.310  0.00  0.00    +0.026 A 
ATOM     23  C   UNL     1      -4.771  -3.703  22.134  0.00  0.00    -0.009 A 
ATOM     24  C   UNL     1      -4.981  -4.966  21.600  0.00  0.00    -0.017 A 
ATOM     25  C   UNL     1      -4.865  -5.156  20.231  0.00  0.00    -0.009 A 
ATOM     26  C   UNL     1      -4.532  -4.094  19.390  0.00  0.00    +0.026 A 
ENDBRANCH  20  21
BRANCH   3   2
ATOM      1  C   UNL     1      -3.055  -1.177  14.933  0.00  0.00    +0.020 C 
ATOM      2  C   UNL     1      -2.595  -0.282  16.066  0.00  0.00    +0.070 C 
ENDBRANCH   3   2
TORSDOF 3
