REMARK  Name = 5FUT
REMARK  13 active torsions:
REMARK  status: ('A' for Active; 'I' for Inactive)
REMARK    1  A    between atoms: C_1  and  N_2
REMARK    2  A    between atoms: C_1  and  C_36
REMARK    3  A    between atoms: C_5  and  N_8
REMARK    4  A    between atoms: N_8  and  C_18
REMARK    5  A    between atoms: N_8  and  C_19
REMARK    6  A    between atoms: N_9  and  C_22
REMARK    7  A    between atoms: C_12  and  N_15
REMARK    8  A    between atoms: C_22  and  C_23
REMARK    9  A    between atoms: C_26  and  C_29
REMARK   10  A    between atoms: C_29  and  C_30
REMARK   11  A    between atoms: C_30  and  C_31
REMARK   12  A    between atoms: C_31  and  C_32
REMARK   13  A    between atoms: C_32  and  C_33
REMARK                            x       y       z     vdW  Elec       q    Type
REMARK                         _______ _______ _______ _____ _____    ______ ____
ROOT
ATOM      9  C   UNL     1      11.156 -25.047   1.067  0.00  0.00    +0.005 C 
ENDROOT
BRANCH   9   8
ATOM      8  C   UNL     1      11.124 -23.693   1.792  0.00  0.00    +0.005 C 
BRANCH   8   7
ATOM      7  C   UNL     1      10.498 -23.817   3.185  0.00  0.00    +0.035 C 
BRANCH   7   5
ATOM      2  C   UNL     1       9.749 -19.919   4.429  0.00  0.00    -0.030 A 
ATOM      3  C   UNL     1       8.869 -20.635   3.638  0.00  0.00    +0.005 A 
ATOM      4  C   UNL     1       9.178 -21.927   3.264  0.00  0.00    +0.004 A 
ATOM      5  C   UNL     1      10.360 -22.523   3.665  0.00  0.00    -0.047 A 
ATOM      6  C   UNL     1      11.273 -21.817   4.453  0.00  0.00    +0.004 A 
ATOM     29  C   UNL     1      10.957 -20.503   4.832  0.00  0.00    +0.005 A 
BRANCH   2   1
ATOM      1  C   UNL     1       9.371 -18.611   4.742  0.00  0.00    +0.145 C 
BRANCH   1  30
ATOM     30  N   UNL     1       9.303 -18.255   6.177  0.00  0.00    -0.309 N 
ATOM     31  C   UNL     1       9.903 -17.059   6.587  0.00  0.00    +0.073 C 
ATOM     32  C   UNL     1       9.853 -16.672   7.921  0.00  0.00    +0.017 C 
ATOM     33  C   UNL     1       9.201 -17.460   8.868  0.00  0.00    +0.087 C 
ATOM     37  C   UNL     1       8.607 -18.656   8.467  0.00  0.00    +0.017 C 
ATOM     38  C   UNL     1       8.642 -19.050   7.130  0.00  0.00    +0.073 C 
BRANCH  33  34
ATOM     34  N   UNL     1       9.184 -17.068  10.147  0.00  0.00    -0.294 NA
ATOM     35  C   UNL     1       9.830 -15.798  10.497  0.00  0.00    +0.105 C 
ATOM     36  C   UNL     1       8.578 -17.936  11.174  0.00  0.00    +0.105 C 
ENDBRANCH  33  34
ENDBRANCH   1  30
ENDBRANCH   2   1
ENDBRANCH   7   5
ENDBRANCH   8   7
ENDBRANCH   9   8
BRANCH   9  10
ATOM     10  C   UNL     1      11.847 -25.051  -0.333  0.00  0.00    +0.035 C 
BRANCH  10  11
ATOM     11  C   UNL     1      13.127 -24.787   0.006  0.00  0.00    -0.047 A 
ATOM     12  C   UNL     1      13.834 -25.866   0.520  0.00  0.00    +0.004 A 
ATOM     13  C   UNL     1      15.134 -25.681   0.925  0.00  0.00    +0.005 A 
ATOM     14  C   UNL     1      15.674 -24.404   0.808  0.00  0.00    -0.030 A 
ATOM     15  C   UNL     1      14.940 -23.327   0.337  0.00  0.00    +0.005 A 
ATOM     28  C   UNL     1      13.650 -23.511  -0.087  0.00  0.00    +0.004 A 
BRANCH  14  16
ATOM     16  C   UNL     1      16.911 -24.119   1.294  0.00  0.00    +0.145 C 
BRANCH  16  17
ATOM     17  N   UNL     1      16.396 -23.634   2.626  0.00  0.00    -0.309 N 
ATOM     18  C   UNL     1      15.955 -24.578   3.578  0.00  0.00    +0.073 C 
ATOM     19  C   UNL     1      15.429 -24.198   4.795  0.00  0.00    +0.017 C 
ATOM     20  C   UNL     1      15.315 -22.851   5.085  0.00  0.00    +0.087 C 
ATOM     26  C   UNL     1      15.726 -21.883   4.171  0.00  0.00    +0.017 C 
ATOM     27  C   UNL     1      16.253 -22.261   2.939  0.00  0.00    +0.073 C 
BRANCH  20  21
ATOM     21  N   UNL     1      14.825 -22.523   6.267  0.00  0.00    -0.288 NA
ATOM     22  C   UNL     1      14.441 -23.400   7.322  0.00  0.00    +0.086 C 
ATOM     23  C   UNL     1      13.489 -22.607   8.268  0.00  0.00    +0.017 C 
ATOM     24  C   UNL     1      14.580 -21.616   8.490  0.00  0.00    +0.017 C 
ATOM     25  C   UNL     1      14.550 -21.298   6.947  0.00  0.00    +0.086 C 
ENDBRANCH  20  21
ENDBRANCH  16  17
ENDBRANCH  14  16
ENDBRANCH  10  11
ENDBRANCH   9  10
TORSDOF 11
