REMARK  Name = 3qgy_ligand
REMARK  4 active torsions:
REMARK  status: ('A' for Active; 'I' for Inactive)
REMARK    1  A    between atoms: C7_7  and  C8_8
REMARK    2  A    between atoms: N19_19  and  C20_20
REMARK    3  A    between atoms: C25_25  and  S26_26
REMARK    4  A    between atoms: S26_26  and  N29_29
REMARK                            x       y       z     vdW  Elec       q    Type
REMARK                         _______ _______ _______ _____ _____    ______ ____
ROOT
ATOM      1  C   UNL     1      19.297  -7.962   4.020  0.00  0.00    +0.016 A 
ATOM      2  C   UNL     1      20.049  -8.848   5.024  0.00  0.00    +0.044 A 
ATOM      3  S   UNL     1      19.419  -9.699   6.329  0.00  0.00    -0.029 S 
ATOM      4  C   UNL     1      20.917 -10.348   6.833  0.00  0.00    +0.040 A 
ATOM     11  C   UNL     1      21.954  -9.916   5.994  0.00  0.00    -0.002 A 
ATOM     12  C   UNL     1      21.429  -9.068   4.974  0.00  0.00    +0.001 A 
ATOM     13  C   UNL     1      22.212  -8.454   3.866  0.00  0.00    +0.043 A 
ATOM     14  N   UNL     1      23.520  -8.827   3.715  0.00  0.00    -0.263 NA
ATOM     15  C   UNL     1      24.293  -8.362   2.722  0.00  0.00    +0.207 A 
ATOM     16  N   UNL     1      25.642  -8.759   2.609  0.00  0.00    -0.242 N 
ATOM     17  H   UNL     1      26.137  -8.358   1.800  0.00  0.00    +0.219 HD
ATOM     30  N   UNL     1      23.775  -7.477   1.825  0.00  0.00    -0.244 NA
ATOM     31  C   UNL     1      22.484  -7.051   1.904  0.00  0.00    +0.126 A 
ATOM     32  C   UNL     1      21.630  -7.518   2.947  0.00  0.00    +0.016 A 
ATOM     33  C   UNL     1      20.187  -7.036   3.124  0.00  0.00    +0.011 A 
ENDROOT
BRANCH   4   5
ATOM      5  C   UNL     1      21.024 -11.276   8.023  0.00  0.00    -0.007 A 
ATOM      6  C   UNL     1      22.224 -11.966   8.394  0.00  0.00    +0.008 A 
ATOM      7  C   UNL     1      22.266 -12.836   9.505  0.00  0.00    -0.001 A 
ATOM      8  C   UNL     1      21.094 -13.038  10.272  0.00  0.00    -0.001 A 
ATOM      9  C   UNL     1      19.880 -12.366   9.932  0.00  0.00    -0.001 A 
ATOM     10  C   UNL     1      19.851 -11.497   8.817  0.00  0.00    +0.008 A 
ENDBRANCH   4   5
BRANCH  16  18
ATOM     18  C   UNL     1      26.451  -9.633   3.433  0.00  0.00    +0.068 A 
ATOM     19  C   UNL     1      27.738 -10.038   2.943  0.00  0.00    +0.016 A 
ATOM     20  C   UNL     1      28.608 -10.892   3.685  0.00  0.00    -0.011 A 
ATOM     21  C   UNL     1      28.196 -11.363   4.966  0.00  0.00    +0.007 A 
ATOM     22  C   UNL     1      26.913 -10.979   5.500  0.00  0.00    +0.099 A 
ATOM     29  C   UNL     1      26.068 -10.124   4.725  0.00  0.00    +0.044 A 
BRANCH  22  23
ATOM     23  S   UNL     1      26.346 -11.493   7.123  0.00  0.00    +0.063 S 
ATOM     27  O   UNL     1      26.007 -12.897   7.139  0.00  0.00    -0.151 OA
ATOM     28  O   UNL     1      27.276 -10.883   8.069  0.00  0.00    -0.151 OA
BRANCH  23  24
ATOM     24  N   UNL     1      24.816 -10.705   7.427  0.00  0.00    -0.261 NA
ATOM     25  H   UNL     1      24.423 -10.094   6.740  0.00  0.00    +0.164 HD
ATOM     26  H   UNL     1      24.334 -10.865   8.288  0.00  0.00    +0.164 HD
ENDBRANCH  23  24
ENDBRANCH  22  23
ENDBRANCH  16  18
TORSDOF 4
