REMARK  Name = 4FSQ
REMARK  7 active torsions:
REMARK  status: ('A' for Active; 'I' for Inactive)
REMARK    1  A    between atoms: O_1  and  C_2
REMARK    2  A    between atoms: C_5  and  C_8
REMARK    3  A    between atoms: C_11  and  C_14
REMARK    4  A    between atoms: C_23  and  O_24
REMARK    5  A    between atoms: O_24  and  C_25
REMARK    6  A    between atoms: C_26  and  O_28
REMARK    7  A    between atoms: O_28  and  C_29
REMARK                            x       y       z     vdW  Elec       q    Type
REMARK                         _______ _______ _______ _____ _____    ______ ____
ROOT
ATOM     11  C   UNL     1      15.377  -3.306   9.952  0.00  0.00    +0.097 A 
ATOM     12  N   UNL     1      15.565  -2.232   9.155  0.00  0.00    -0.173 NA
ATOM     13  N   UNL     1      16.845  -2.131   8.687  0.00  0.00    -0.276 N 
ATOM     14  H   UNL     1      17.250  -1.380   8.041  0.00  0.00    +0.189 HD
ATOM     15  C   UNL     1      17.477  -3.181   9.217  0.00  0.00    +0.070 A 
ATOM     16  C   UNL     1      18.789  -3.743   9.345  0.00  0.00    +0.007 A 
ATOM     17  C   UNL     1      19.982  -3.362   8.732  0.00  0.00    +0.059 A 
ATOM     18  C   UNL     1      21.136  -4.095   8.978  0.00  0.00    +0.162 A 
ATOM     19  C   UNL     1      21.097  -5.195   9.872  0.00  0.00    +0.162 A 
ATOM     22  C   UNL     1      19.909  -5.530  10.504  0.00  0.00    +0.054 A 
ATOM     25  C   UNL     1      18.747  -4.826  10.217  0.00  0.00    -0.030 A 
ATOM     26  C   UNL     1      17.326  -5.100  10.621  0.00  0.00    +0.075 C 
ATOM     27  C   UNL     1      16.580  -3.975  10.026  0.00  0.00    +0.010 A 
ENDROOT
BRANCH  11  10
ATOM      7  C   UNL     1      11.796  -3.901  12.210  0.00  0.00    -0.018 A 
ATOM      8  C   UNL     1      11.998  -2.740  11.466  0.00  0.00    +0.009 A 
ATOM      9  C   UNL     1      13.109  -2.584  10.661  0.00  0.00    +0.010 A 
ATOM     10  C   UNL     1      14.073  -3.580  10.586  0.00  0.00    +0.002 A 
ATOM     28  C   UNL     1      13.850  -4.771  11.272  0.00  0.00    +0.010 A 
ATOM     29  C   UNL     1      12.717  -4.934  12.051  0.00  0.00    +0.009 A 
BRANCH   7   6
ATOM      3  C   UNL     1       8.033  -4.390  14.175  0.00  0.00    +0.117 A 
ATOM      4  C   UNL     1       8.834  -5.495  13.923  0.00  0.00    +0.046 A 
ATOM      5  C   UNL     1      10.105  -5.323  13.399  0.00  0.00    +0.012 A 
ATOM      6  C   UNL     1      10.594  -4.056  13.074  0.00  0.00    -0.018 A 
ATOM     30  C   UNL     1       9.774  -2.958  13.363  0.00  0.00    +0.012 A 
ATOM     31  C   UNL     1       8.516  -3.118  13.915  0.00  0.00    +0.046 A 
BRANCH   3   1
ATOM      1  O   UNL     1       6.768  -4.549  14.653  0.00  0.00    -0.507 OA
ATOM      2  H   UNL     1       6.675  -4.048  15.571  0.00  0.00    +0.292 HD
ENDBRANCH   3   1
ENDBRANCH   7   6
ENDBRANCH  11  10
BRANCH  19  20
ATOM     20  O   UNL     1      22.264  -5.907   9.982  0.00  0.00    -0.491 OA
ATOM     21  C   UNL     1      22.245  -7.122  10.739  0.00  0.00    +0.277 C 
ENDBRANCH  19  20
BRANCH  18  23
ATOM     23  O   UNL     1      22.350  -3.860   8.385  0.00  0.00    -0.491 OA
ATOM     24  C   UNL     1      22.502  -2.677   7.591  0.00  0.00    +0.277 C 
ENDBRANCH  18  23
TORSDOF 5
