REMARK  Name = 1U59
REMARK  5 active torsions:
REMARK  status: ('A' for Active; 'I' for Inactive)
REMARK    1  A    between atoms: C_4  and  N_34
REMARK    2  A    between atoms: C_5  and  O_32
REMARK    3  A    between atoms: C_6  and  C_7
REMARK    4  A    between atoms: O_32  and  C_33
REMARK    5  A    between atoms: N_34  and  C_35
REMARK                            x       y       z     vdW  Elec       q    Type
REMARK                         _______ _______ _______ _____ _____    ______ ____
ROOT
ATOM      1  O   UNL     1       9.344   4.440  52.675  0.00  0.00    -0.328 OA
ATOM      2  C   UNL     1      10.483   4.168  51.740  0.00  0.00    +0.174 C 
ATOM      3  N   UNL     1      11.710   3.809  52.571  0.00  0.00    -0.307 N 
ATOM      4  C   UNL     1      12.791   2.911  52.261  0.00  0.00    +0.053 A 
ATOM      5  C   UNL     1      13.081   2.049  51.090  0.00  0.00    +0.026 A 
ATOM      6  C   UNL     1      14.264   1.258  51.079  0.00  0.00    +0.002 A 
ATOM      7  C   UNL     1      15.196   1.283  52.198  0.00  0.00    +0.001 A 
ATOM      8  C   UNL     1      14.946   2.103  53.335  0.00  0.00    +0.010 A 
ATOM      9  C   UNL     1      13.730   2.931  53.374  0.00  0.00    +0.008 A 
ATOM     10  C   UNL     1      13.215   3.843  54.356  0.00  0.00    +0.015 A 
ATOM     11  C   UNL     1      13.673   4.296  55.640  0.00  0.00    -0.008 A 
ATOM     12  C   UNL     1      14.922   3.941  56.418  0.00  0.00    +0.141 C 
ATOM     13  N   UNL     1      14.794   4.735  57.603  0.00  0.00    -0.307 N 
ATOM     14  H   UNL     1      15.523   4.726  58.386  0.00  0.00    +0.149 HD
ATOM     15  C   UNL     1      13.668   5.504  57.654  0.00  0.00    +0.245 C 
ATOM     16  O   UNL     1      13.330   6.286  58.578  0.00  0.00    -0.270 OA
ATOM     17  C   UNL     1      12.924   5.244  56.407  0.00  0.00    +0.052 A 
ATOM     18  C   UNL     1      11.652   5.780  55.905  0.00  0.00    +0.022 A 
ATOM     19  C   UNL     1      10.679   6.713  56.393  0.00  0.00    +0.009 A 
ATOM     20  C   UNL     1      10.577   7.517  57.621  0.00  0.00    +0.010 A 
ATOM     21  C   UNL     1       9.408   8.362  57.738  0.00  0.00    +0.001 A 
ATOM     22  C   UNL     1       8.391   8.424  56.730  0.00  0.00    +0.002 A 
ATOM     23  C   UNL     1       8.434   7.660  55.515  0.00  0.00    +0.026 A 
ATOM     24  C   UNL     1       9.646   6.791  55.394  0.00  0.00    +0.052 A 
ATOM     25  N   UNL     1       9.976   5.933  54.314  0.00  0.00    -0.312 N 
ATOM     26  C   UNL     1      11.195   5.325  54.627  0.00  0.00    +0.077 A 
ATOM     27  C   UNL     1      11.981   4.351  53.833  0.00  0.00    +0.077 A 
ATOM     28  C   UNL     1       9.840   3.043  50.872  0.00  0.00    +0.069 C 
ATOM     29  C   UNL     1      10.813   5.458  50.794  0.00  0.00    +0.187 C 
ATOM     32  C   UNL     1       9.582   6.406  50.574  0.00  0.00    +0.091 C 
ATOM     36  C   UNL     1       9.114   6.857  51.985  0.00  0.00    +0.076 C 
ATOM     37  C   UNL     1       9.107   5.786  53.129  0.00  0.00    +0.224 C 
ENDROOT
BRANCH  32  33
ATOM     33  N   UNL     1      10.019   7.510  49.683  0.00  0.00    -0.314 NA
ATOM     34  H   UNL     1      11.045   7.728  49.896  0.00  0.00    +0.122 HD
ATOM     35  C   UNL     1       9.897   7.198  48.221  0.00  0.00    +0.101 C 
ENDBRANCH  32  33
BRANCH  29  30
ATOM     30  O   UNL     1      11.828   6.298  51.474  0.00  0.00    -0.374 OA
ATOM     31  C   UNL     1      13.178   6.291  50.942  0.00  0.00    +0.194 C 
ENDBRANCH  29  30
TORSDOF 2
