REMARK  Name = 3ocp_ligand
REMARK  3 active torsions:
REMARK  status: ('A' for Active; 'I' for Inactive)
REMARK    1  A    between atoms: C2'_10  and  O2'_11
REMARK    2  A    between atoms: C1'_12  and  N9_13
REMARK    3  A    between atoms: C6_17  and  N6_18
REMARK                            x       y       z     vdW  Elec       q    Type
REMARK                         _______ _______ _______ _____ _____    ______ ____
ROOT
ATOM      1  P   UNL     1      -3.020  33.766  27.353  0.00  0.00    +0.256 P 
ATOM      2  O   UNL     1      -2.746  34.861  26.165  0.00  0.00    -0.245 OA
ATOM      3  C   UNL     1      -1.747  35.722  26.678  0.00  0.00    +0.225 C 
ATOM      4  C   UNL     1      -1.425  36.954  25.849  0.00  0.00    +0.212 C 
ATOM      5  C   UNL     1      -0.765  37.835  26.920  0.00  0.00    +0.301 C 
ATOM     18  O   UNL     1      -1.185  37.352  28.186  0.00  0.00    -0.336 OA
ATOM     21  C   UNL     1      -2.218  36.376  27.947  0.00  0.00    +0.190 C 
ATOM     22  C   UNL     1      -2.437  35.428  29.083  0.00  0.00    +0.242 C 
ATOM     23  O   UNL     1      -3.428  34.491  28.675  0.00  0.00    -0.251 OA
ATOM     24  O   UNL     1      -4.388  33.015  26.845  0.00  0.00    -0.618 OA
ATOM     25  O   UNL     1      -1.859  32.889  27.555  0.00  0.00    -0.618 OA
ENDROOT
BRANCH   5   6
ATOM      6  N   UNL     1       0.706  37.721  26.872  0.00  0.00    -0.192 N 
ATOM      7  C   UNL     1       1.586  38.701  26.405  0.00  0.00    +0.161 A 
ATOM      8  N   UNL     1       1.372  39.934  25.887  0.00  0.00    -0.271 NA
ATOM      9  C   UNL     1       2.461  40.727  25.484  0.00  0.00    +0.153 A 
ATOM     10  N   UNL     1       3.750  40.250  25.616  0.00  0.00    -0.270 NA
ATOM     11  C   UNL     1       3.953  39.056  26.119  0.00  0.00    +0.130 A 
ATOM     15  C   UNL     1       2.823  38.229  26.533  0.00  0.00    +0.105 A 
ATOM     16  N   UNL     1       2.753  36.972  27.075  0.00  0.00    -0.296 NA
ATOM     17  C   UNL     1       1.426  36.677  27.275  0.00  0.00    +0.247 A 
BRANCH  11  12
ATOM     12  N   UNL     1       5.301  38.552  26.271  0.00  0.00    -0.315 N 
ATOM     13  H   UNL     1       5.459  37.615  26.669  0.00  0.00    +0.182 HD
ATOM     14  H   UNL     1       6.103  39.130  25.981  0.00  0.00    +0.182 HD
ENDBRANCH  11  12
ENDBRANCH   5   6
BRANCH   4  19
ATOM     19  O   UNL     1      -2.612  37.583  25.377  0.00  0.00    -0.383 OA
ATOM     20  H   UNL     1      -3.099  36.972  24.836  0.00  0.00    +0.210 HD
ENDBRANCH   4  19
TORSDOF 3
