REMARK  Name = 6Q7S
REMARK  0 active torsions:
REMARK  status: ('A' for Active; 'I' for Inactive)
REMARK                            x       y       z     vdW  Elec       q    Type
REMARK                         _______ _______ _______ _____ _____    ______ ____
ROOT
ATOM      1  C   UNL     1       2.953   6.696  49.629  0.00  0.00    +0.250 A 
ATOM      2  O   UNL     1       2.554   8.003  49.505  0.00  0.00    -0.650 OA
ATOM      3  C   UNL     1       2.206   5.801  50.380  0.00  0.00    -0.130 A 
ATOM      4  C   UNL     1       2.611   4.490  50.501  0.00  0.00    -0.130 A 
ATOM      5  C   UNL     1       3.769   4.065  49.872  0.00  0.00    -0.130 A 
ATOM      6  C   UNL     1       4.517   4.955  49.123  0.00  0.00    -0.130 A 
ATOM      7  C   UNL     1       4.109   6.266  49.004  0.00  0.00    -0.130 A 
ENDROOT
TORSDOF 0
