REMARK  Name = 2wtd_ligand
REMARK  3 active torsions:
REMARK  status: ('A' for Active; 'I' for Inactive)
REMARK    1  A    between atoms: C02_2  and  C04_4
REMARK    2  A    between atoms: C07_7  and  C08_8
REMARK    3  A    between atoms: C10_10  and  C11_11
REMARK                            x       y       z     vdW  Elec       q    Type
REMARK                         _______ _______ _______ _____ _____    ______ ____
ROOT
ATOM      9  C   UNL     1      37.116 -33.611   7.677  0.00  0.00    +0.031 A 
ATOM     10  C   UNL     1      36.798 -34.625   6.762  0.00  0.00    +0.120 A 
ATOM     11  N   UNL     1      35.864 -35.677   7.112  0.00  0.00    -0.320 N 
ATOM     12  H   UNL     1      35.424 -35.686   8.043  0.00  0.00    +0.179 HD
ATOM     13  H   UNL     1      35.640 -36.415   6.429  0.00  0.00    +0.179 HD
ATOM     14  N   UNL     1      37.375 -34.630   5.520  0.00  0.00    -0.283 NA
ATOM     15  C   UNL     1      38.251 -33.644   5.149  0.00  0.00    +0.080 A 
ATOM     16  C   UNL     1      38.570 -32.618   6.046  0.00  0.00    -0.009 A 
ATOM     26  C   UNL     1      37.990 -32.618   7.297  0.00  0.00    +0.030 A 
ENDROOT
BRANCH  16  17
ATOM     17  C   UNL     1      39.401 -31.568   5.653  0.00  0.00    +0.004 A 
ATOM     18  C   UNL     1      40.115 -31.603   4.440  0.00  0.00    +0.132 A 
ATOM     19  O   UNL     1      40.245 -32.552   3.519  0.00  0.00    -0.289 OA
ATOM     20  C   UNL     1      40.979 -32.058   2.389  0.00  0.00    +0.382 C 
ATOM     21  O   UNL     1      41.540 -30.810   2.809  0.00  0.00    -0.291 OA
ATOM     22  C   UNL     1      40.903 -30.498   4.058  0.00  0.00    +0.124 A 
ATOM     23  C   UNL     1      40.947 -29.352   4.865  0.00  0.00    +0.009 A 
ATOM     24  C   UNL     1      40.207 -29.297   6.052  0.00  0.00    -0.032 A 
ATOM     25  C   UNL     1      39.419 -30.395   6.427  0.00  0.00    -0.025 A 
ENDBRANCH  16  17
BRANCH   9   8
ATOM      5  C   UNL     1      35.342 -33.465  11.503  0.00  0.00    +0.048 A 
ATOM      6  C   UNL     1      35.801 -34.687  10.988  0.00  0.00    +0.023 A 
ATOM      7  C   UNL     1      36.389 -34.740   9.715  0.00  0.00    +0.012 A 
ATOM      8  C   UNL     1      36.526 -33.575   8.942  0.00  0.00    -0.013 A 
ATOM     27  C   UNL     1      36.068 -32.352   9.462  0.00  0.00    +0.012 A 
ATOM     28  C   UNL     1      35.480 -32.295  10.735  0.00  0.00    +0.023 A 
BRANCH   5   4
ATOM      1  N   UNL     1      35.078 -32.201  13.716  0.00  0.00    -0.300 N 
ATOM      2  H   UNL     1      34.792 -32.154  14.673  0.00  0.00    +0.181 HD
ATOM      3  H   UNL     1      35.583 -31.441  13.307  0.00  0.00    +0.181 HD
ATOM      4  C   UNL     1      34.761 -33.372  12.921  0.00  0.00    +0.201 C 
ATOM     29  O   UNL     1      34.159 -34.268  13.426  0.00  0.00    -0.386 OA
ENDBRANCH   5   4
ENDBRANCH   9   8
TORSDOF 3
