REMARK  Name = 2zkj_ligand
REMARK  9 active torsions:
REMARK  status: ('A' for Active; 'I' for Inactive)
REMARK    1  A    between atoms: PB_1  and  O3A_8
REMARK    2  A    between atoms: PA_5  and  O3A_8
REMARK    3  A    between atoms: PA_5  and  O5'_9
REMARK    4  A    between atoms: O5'_9  and  C5'_10
REMARK    5  A    between atoms: C5'_10  and  C4'_11
REMARK    6  A    between atoms: C3'_13  and  O3'_14
REMARK    7  A    between atoms: C2'_15  and  O2'_16
REMARK    8  A    between atoms: C1'_17  and  N9_18
REMARK    9  A    between atoms: C6_22  and  N6_23
REMARK                            x       y       z     vdW  Elec       q    Type
REMARK                         _______ _______ _______ _____ _____    ______ ____
ROOT
ATOM      6  C   UNL     1     -17.306   5.084  27.765  0.00  0.00    +0.184 C 
ATOM      7  C   UNL     1     -18.091   6.285  28.320  0.00  0.00    +0.180 C 
ATOM      8  C   UNL     1     -16.952   7.127  28.920  0.00  0.00    +0.206 C 
ATOM      9  C   UNL     1     -15.706   6.792  28.078  0.00  0.00    +0.301 C 
ATOM     26  O   UNL     1     -16.077   5.649  27.280  0.00  0.00    -0.336 OA
ENDROOT
BRANCH   9  10
ATOM     10  N   UNL     1     -15.507   7.882  27.138  0.00  0.00    -0.192 N 
ATOM     11  C   UNL     1     -14.962   9.032  27.462  0.00  0.00    +0.161 A 
ATOM     12  N   UNL     1     -14.434   9.558  28.616  0.00  0.00    -0.271 NA
ATOM     13  C   UNL     1     -13.962  10.793  28.577  0.00  0.00    +0.153 A 
ATOM     14  N   UNL     1     -13.955  11.532  27.467  0.00  0.00    -0.270 NA
ATOM     15  C   UNL     1     -14.456  11.119  26.287  0.00  0.00    +0.130 A 
ATOM     19  C   UNL     1     -15.002   9.781  26.232  0.00  0.00    +0.105 A 
ATOM     20  N   UNL     1     -15.548   8.999  25.273  0.00  0.00    -0.296 NA
ATOM     21  C   UNL     1     -15.896   7.851  25.844  0.00  0.00    +0.247 A 
BRANCH  15  16
ATOM     16  N   UNL     1     -14.464  11.925  25.159  0.00  0.00    -0.315 N 
ATOM     17  H   UNL     1     -14.860  11.572  24.276  0.00  0.00    +0.182 HD
ATOM     18  H   UNL     1     -14.074  12.877  25.204  0.00  0.00    +0.182 HD
ENDBRANCH  15  16
ENDBRANCH   9  10
BRANCH   8  22
ATOM     22  O   UNL     1     -16.677   6.546  30.185  0.00  0.00    -0.384 OA
ATOM     23  H   UNL     1     -17.458   6.582  30.725  0.00  0.00    +0.210 HD
ENDBRANCH   8  22
BRANCH   7  24
ATOM     24  O   UNL     1     -19.084   5.849  29.300  0.00  0.00    -0.386 OA
ATOM     25  H   UNL     1     -19.694   5.249  28.886  0.00  0.00    +0.210 HD
ENDBRANCH   7  24
BRANCH   6   5
ATOM      5  C   UNL     1     -18.064   4.296  26.671  0.00  0.00    +0.243 C 
BRANCH   5   4
ATOM      4  O   UNL     1     -18.473   5.131  25.579  0.00  0.00    -0.244 OA
BRANCH   4   3
ATOM      3  P   UNL     1     -19.560   4.526  24.623  0.00  0.00    +0.328 P 
ATOM     27  O   UNL     1     -18.973   3.165  24.171  0.00  0.00    -0.556 OA
ATOM     28  O   UNL     1     -19.782   5.663  23.715  0.00  0.00    -0.556 OA
BRANCH   3   2
ATOM      2  O   UNL     1     -20.796   4.177  25.637  0.00  0.00    -0.155 OA
BRANCH   2   1
ATOM      1  P   UNL     1     -21.673   5.281  26.514  0.00  0.00    +0.207 P 
ATOM     29  O   UNL     1     -21.570   6.546  25.829  0.00  0.00    -0.589 OA
ATOM     30  O   UNL     1     -23.138   4.792  26.416  0.00  0.00    -0.589 OA
ATOM     31  O   UNL     1     -21.093   5.284  27.914  0.00  0.00    -0.589 OA
ENDBRANCH   2   1
ENDBRANCH   3   2
ENDBRANCH   4   3
ENDBRANCH   5   4
ENDBRANCH   6   5
TORSDOF 9
