REMARK  Name = 3OTU
REMARK  6 active torsions:
REMARK  status: ('A' for Active; 'I' for Inactive)
REMARK    1  A    between atoms: S_1  and  C_2
REMARK    2  A    between atoms: C_2  and  C_4
REMARK    3  A    between atoms: C_3  and  C_4
REMARK    4  A    between atoms: C_3  and  C_5
REMARK    5  A    between atoms: C_10  and  N_11
REMARK    6  A    between atoms: C_10  and  C_14
REMARK                            x       y       z     vdW  Elec       q    Type
REMARK                         _______ _______ _______ _____ _____    ______ ____
ROOT
ATOM      6  C   UNL     1      -2.333 -13.121 -12.182  0.00  0.00    +0.216 C 
ATOM      7  N   UNL     1      -1.741 -13.267 -13.363  0.00  0.00    -0.299 N 
ATOM      8  C   UNL     1      -2.344 -14.019 -14.462  0.00  0.00    +0.123 C 
ATOM      9  C   UNL     1      -1.241 -14.550 -15.380  0.00  0.00    +0.104 C 
ATOM     10  N   UNL     1      -0.454 -13.407 -15.838  0.00  0.00    -0.295 NA
ATOM     22  C   UNL     1      -0.385 -12.200 -15.037  0.00  0.00    +0.104 C 
ATOM     23  C   UNL     1      -0.432 -12.664 -13.587  0.00  0.00    +0.123 C 
ATOM     24  O   UNL     1      -1.810 -12.486 -11.278  0.00  0.00    -0.276 OA
ENDROOT
BRANCH   6   5
ATOM      5  C   UNL     1      -3.687 -13.765 -11.975  0.00  0.00    +0.097 C 
BRANCH   5   4
ATOM      4  C   UNL     1      -4.079 -13.570 -10.511  0.00  0.00    +0.020 C 
BRANCH   4   3
ATOM      3  C   UNL     1      -5.331 -14.346 -10.118  0.00  0.00    +0.066 C 
BRANCH   3   1
ATOM      1  S   UNL     1      -6.745 -13.640 -10.901  0.00  0.00    -0.178 S 
ATOM      2  H   UNL     1      -6.878 -12.363 -10.517  0.00  0.00    +0.102 HD
ENDBRANCH   3   1
ENDBRANCH   4   3
ENDBRANCH   5   4
ENDBRANCH   6   5
BRANCH  10  11
ATOM     11  C   UNL     1       0.260 -13.427 -17.109  0.00  0.00    +0.120 C 
BRANCH  11  12
ATOM     12  C   UNL     1      -0.409 -14.364 -18.085  0.00  0.00    -0.026 A 
ATOM     13  C   UNL     1      -1.430 -13.908 -18.907  0.00  0.00    +0.005 A 
ATOM     14  C   UNL     1      -2.040 -14.777 -19.802  0.00  0.00    +0.001 A 
ATOM     15  C   UNL     1      -1.626 -16.103 -19.869  0.00  0.00    +0.008 A 
ATOM     16  C   UNL     1      -0.600 -16.555 -19.044  0.00  0.00    -0.018 A 
ATOM     17  C   UNL     1      -0.179 -17.880 -19.105  0.00  0.00    +0.008 A 
ATOM     18  C   UNL     1       0.849 -18.322 -18.276  0.00  0.00    +0.001 A 
ATOM     19  C   UNL     1       1.459 -17.444 -17.386  0.00  0.00    +0.001 A 
ATOM     20  C   UNL     1       1.038 -16.121 -17.324  0.00  0.00    +0.009 A 
ATOM     21  C   UNL     1       0.009 -15.681 -18.154  0.00  0.00    -0.014 A 
ENDBRANCH  11  12
ENDBRANCH  10  11
TORSDOF 6
