REMARK  Name = 4bdd_ligand
REMARK  5 active torsions:
REMARK  status: ('A' for Active; 'I' for Inactive)
REMARK    1  A    between atoms: N3_3  and  C9_4
REMARK    2  A    between atoms: C9_4  and  C12_5
REMARK    3  A    between atoms: C9_4  and  C11_6
REMARK    4  A    between atoms: C9_4  and  C10_7
REMARK    5  A    between atoms: N_8  and  C1_9
REMARK                            x       y       z     vdW  Elec       q    Type
REMARK                         _______ _______ _______ _____ _____    ______ ____
ROOT
ATOM      1  O   UNL     1     -40.017  31.701   3.265  0.00  0.00    -0.389 OA
ATOM      2  C   UNL     1     -40.300  30.804   4.061  0.00  0.00    +0.291 C 
ATOM      3  N   UNL     1     -39.927  30.800   5.386  0.00  0.00    -0.214 N 
ATOM      4  H   UNL     1     -40.258  30.023   5.921  0.00  0.00    +0.230 HD
ATOM     15  N   UNL     1     -41.022  29.692   3.758  0.00  0.00    -0.262 N 
ATOM     16  H   UNL     1     -41.179  29.048   4.507  0.00  0.00    +0.186 HD
ENDROOT
BRANCH   3   5
ATOM      5  C   UNL     1     -39.140  31.739   6.104  0.00  0.00    +0.080 A 
ATOM      6  C   UNL     1     -38.600  32.879   5.527  0.00  0.00    +0.032 A 
ATOM      7  C   UNL     1     -37.856  33.783   6.321  0.00  0.00    +0.057 A 
ATOM      8  N   UNL     1     -37.286  34.881   5.730  0.00  0.00    -0.281 NA
ATOM      9  C   UNL     1     -36.574  35.668   6.522  0.00  0.00    +0.128 A 
ATOM     10  C   UNL     1     -36.414  35.422   7.883  0.00  0.00    +0.127 A 
ATOM     11  N   UNL     1     -36.945  34.371   8.487  0.00  0.00    -0.277 NA
ATOM     12  C   UNL     1     -37.678  33.520   7.696  0.00  0.00    +0.065 A 
ATOM     13  C   UNL     1     -38.232  32.343   8.247  0.00  0.00    +0.032 A 
ATOM     14  C   UNL     1     -38.939  31.476   7.462  0.00  0.00    +0.041 A 
ENDBRANCH   3   5
BRANCH  15  17
ATOM     17  C   UNL     1     -41.604  29.325   2.443  0.00  0.00    +0.046 C 
ATOM     18  C   UNL     1     -40.505  29.083   1.419  0.00  0.00    +0.036 C 
ATOM     19  C   UNL     1     -42.547  30.412   1.943  0.00  0.00    +0.036 C 
ATOM     20  C   UNL     1     -42.385  28.038   2.664  0.00  0.00    +0.036 C 
ENDBRANCH  15  17
TORSDOF 2
