REMARK  Name = 5USZ
REMARK  4 active torsions:
REMARK  status: ('A' for Active; 'I' for Inactive)
REMARK    1  A    between atoms: S_1  and  N_14
REMARK    2  A    between atoms: S_1  and  C_17
REMARK    3  A    between atoms: C_10  and  N_11
REMARK    4  A    between atoms: C_21  and  C_22
REMARK                            x       y       z     vdW  Elec       q    Type
REMARK                         _______ _______ _______ _____ _____    ______ ____
ROOT
ATOM      7  N   UNL     1     -10.985  16.216  19.188  0.00  0.00    -0.282 N 
ATOM      8  H   UNL     1     -11.321  16.290  18.175  0.00  0.00    +0.155 HD
ATOM      9  C   UNL     1      -9.560  15.945  19.100  0.00  0.00    +0.241 A 
ATOM     10  N   UNL     1      -8.888  14.884  19.517  0.00  0.00    -0.125 NA
ATOM     11  N   UNL     1      -7.593  15.075  19.225  0.00  0.00    -0.161 N 
ATOM     12  C   UNL     1      -6.507  14.163  19.509  0.00  0.00    +0.287 C 
ATOM     21  O   UNL     1      -5.399  14.455  19.190  0.00  0.00    -0.265 OA
ATOM     22  C   UNL     1      -7.461  16.236  18.632  0.00  0.00    +0.220 A 
ATOM     23  N   UNL     1      -6.223  16.822  18.159  0.00  0.00    -0.327 N 
ATOM     24  H   UNL     1      -5.301  16.292  18.277  0.00  0.00    +0.145 HD
ATOM     25  H   UNL     1      -6.231  17.785  17.692  0.00  0.00    +0.145 HD
ATOM     26  N   UNL     1      -8.674  16.790  18.547  0.00  0.00    -0.180 NA
ENDROOT
BRANCH  12  13
ATOM     13  C   UNL     1      -6.769  12.829  20.205  0.00  0.00    +0.112 A 
ATOM     14  C   UNL     1      -7.471  12.775  21.396  0.00  0.00    +0.139 A 
ATOM     15  C   UNL     1      -7.698  11.552  22.009  0.00  0.00    +0.039 A 
ATOM     16  C   UNL     1      -7.223  10.383  21.436  0.00  0.00    +0.006 A 
ATOM     17  C   UNL     1      -6.518  10.438  20.245  0.00  0.00    +0.039 A 
ATOM     18  F   UNL     1      -7.945  13.920  21.969  0.00  0.00    -0.205 F 
ATOM     19  C   UNL     1      -6.293  11.660  19.631  0.00  0.00    +0.139 A 
ATOM     20  F   UNL     1      -5.600  11.725  18.458  0.00  0.00    -0.205 F 
ENDBRANCH  12  13
BRANCH   7   5
ATOM      2  C   UNL     1     -13.909  13.842  21.102  0.00  0.00    +0.105 A 
ATOM      3  C   UNL     1     -14.282  14.924  20.326  0.00  0.00    +0.030 A 
ATOM      4  C   UNL     1     -13.311  15.693  19.708  0.00  0.00    +0.025 A 
ATOM      5  C   UNL     1     -11.969  15.380  19.857  0.00  0.00    +0.034 A 
ATOM      6  C   UNL     1     -11.603  14.295  20.637  0.00  0.00    +0.025 A 
ATOM     27  C   UNL     1     -12.572  13.526  21.257  0.00  0.00    +0.030 A 
BRANCH   2   1
ATOM      1  S   UNL     1     -15.184  12.837  21.917  0.00  0.00    +0.056 S 
ATOM     31  O   UNL     1     -14.595  11.994  22.961  0.00  0.00    -0.153 OA
ATOM     32  O   UNL     1     -15.725  11.831  20.997  0.00  0.00    -0.153 OA
BRANCH   1  28
ATOM     28  N   UNL     1     -16.416  13.840  22.539  0.00  0.00    -0.203 NA
ATOM     29  H   UNL     1     -16.905  14.346  21.733  0.00  0.00    +0.144 HD
ATOM     30  H   UNL     1     -17.128  13.243  23.070  0.00  0.00    +0.144 HD
ENDBRANCH   1  28
ENDBRANCH   2   1
ENDBRANCH   7   5
TORSDOF 4
