REMARK  Name = SU6
REMARK  4 active torsions:
REMARK  status: ('A' for Active; 'I' for Inactive)
REMARK    1  A    between atoms: C1_1  and  C2_4
REMARK    2  A    between atoms: C2_4  and  C3_7
REMARK    3  A    between atoms: C3_7  and  C4_9
REMARK    4  A    between atoms: C9_14  and  C10_15
REMARK                            x       y       z     vdW  Elec       q    Type
REMARK                         _______ _______ _______ _____ _____    ______ ____
ROOT
ATOM      5  C   UNL     1      -1.010  -7.382  26.202  0.00  0.00    -0.011 A 
ATOM      6  C   UNL     1       0.099  -6.588  26.535  0.00  0.00    +0.055 A 
ATOM      7  C   UNL     1       1.433  -6.960  27.083  0.00  0.00    +0.052 C 
ATOM      8  N   UNL     1      -0.206  -5.243  26.274  0.00  0.00    -0.250 NA
ATOM      9  C   UNL     1      -1.506  -5.147  25.761  0.00  0.00    +0.077 A 
ATOM     21  C   UNL     1      -2.009  -6.466  25.695  0.00  0.00    -0.007 A 
ATOM     22  C   UNL     1      -3.358  -6.801  25.197  0.00  0.00    +0.032 C 
ENDROOT
BRANCH   9  10
ATOM     10  C   UNL     1      -2.155  -3.880  25.356  0.00  0.00    +0.023 C 
ATOM     11  C   UNL     1      -1.594  -2.668  25.118  0.00  0.00    +0.058 C 
ATOM     12  C   UNL     1      -0.246  -2.327  25.509  0.00  0.00    +0.269 C 
ATOM     13  O   UNL     1       0.598  -3.050  26.097  0.00  0.00    -0.268 OA
ATOM     14  N   UNL     1       0.097  -0.993  25.149  0.00  0.00    -0.175 NA
ATOM     15  C   UNL     1      -1.059  -0.453  24.506  0.00  0.00    +0.074 A 
ATOM     16  C   UNL     1      -1.238   0.824  23.964  0.00  0.00    +0.017 A 
ATOM     17  C   UNL     1      -2.488   1.098  23.380  0.00  0.00    +0.001 A 
ATOM     18  C   UNL     1      -3.497   0.157  23.345  0.00  0.00    +0.000 A 
ATOM     19  C   UNL     1      -3.292  -1.120  23.890  0.00  0.00    +0.001 A 
ATOM     20  C   UNL     1      -2.085  -1.437  24.470  0.00  0.00    +0.020 A 
ENDBRANCH   9  10
BRANCH   5   4
ATOM      4  C   UNL     1      -1.015  -8.897  26.308  0.00  0.00    +0.039 C 
BRANCH   4   3
ATOM      3  C   UNL     1      -2.179  -9.624  26.995  0.00  0.00    +0.119 C 
BRANCH   3   1
ATOM      1  C   UNL     1      -2.219 -11.183  26.759  0.00  0.00    +0.365 C 
ATOM      2  O   UNL     1      -3.252 -11.831  27.049  0.00  0.00    -0.246 OA
ATOM     23  O   UNL     1      -1.178 -11.684  26.257  0.00  0.00    -0.246 OA
ENDBRANCH   3   1
ENDBRANCH   4   3
ENDBRANCH   5   4
TORSDOF 4
