REMARK  Name = 2ym6_ligand
REMARK  3 active torsions:
REMARK  status: ('A' for Active; 'I' for Inactive)
REMARK    1  A    between atoms: C6_6  and  NAU_21
REMARK    2  A    between atoms: NAA_7  and  CAF_11
REMARK    3  A    between atoms: CAF_11  and  CAT_20
REMARK                            x       y       z     vdW  Elec       q    Type
REMARK                         _______ _______ _______ _____ _____    ______ ____
ROOT
ATOM      1  N   UNL     1      17.829  -0.476   9.612  0.00  0.00    -0.266 NA
ATOM      2  C   UNL     1      16.828  -0.847  10.428  0.00  0.00    +0.129 A 
ATOM     14  C   UNL     1      15.623  -0.152  10.362  0.00  0.00    +0.074 A 
ATOM     15  C   UNL     1      14.393  -0.192  11.032  0.00  0.00    +0.023 A 
ATOM     16  C   UNL     1      13.647   0.887  10.582  0.00  0.00    +0.097 A 
ATOM     17  N   UNL     1      14.395   1.575   9.721  0.00  0.00    -0.251 N 
ATOM     18  H   UNL     1      14.099   2.425   9.241  0.00  0.00    +0.225 HD
ATOM     19  C   UNL     1      12.360   1.092  11.060  0.00  0.00    +0.108 A 
ATOM     20  N   UNL     1      11.825   0.260  11.941  0.00  0.00    -0.312 NA
ATOM     21  C   UNL     1      12.499  -0.788  12.387  0.00  0.00    +0.066 A 
ATOM     22  C   UNL     1      13.799  -1.046  11.952  0.00  0.00    +0.024 A 
ATOM     23  C   UNL     1      15.587   0.993   9.577  0.00  0.00    +0.144 A 
ATOM     24  N   UNL     1      16.647   1.328   8.831  0.00  0.00    -0.267 NA
ATOM     25  C   UNL     1      17.747   0.597   8.849  0.00  0.00    +0.161 A 
ENDROOT
BRANCH   2   3
ATOM      3  N   UNL     1      17.022  -2.047  11.108  0.00  0.00    -0.282 N 
ATOM      4  C   UNL     1      18.335  -2.699  11.122  0.00  0.00    +0.176 C 
ATOM      5  C   UNL     1      18.430  -3.488  12.435  0.00  0.00    +0.186 C 
ATOM      6  O   UNL     1      17.359  -4.459  12.607  0.00  0.00    -0.367 OA
ATOM      7  C   UNL     1      16.111  -3.753  12.621  0.00  0.00    +0.185 C 
ATOM     13  C   UNL     1      15.927  -3.009  11.311  0.00  0.00    +0.167 C 
BRANCH   5   8
ATOM      8  C   UNL     1      18.292  -2.541  13.646  0.00  0.00    +0.161 C 
BRANCH   8   9
ATOM      9  N   UNL     1      18.418  -3.279  14.914  0.00  0.00    +0.220 N 
ATOM     10  H   UNL     1      19.332  -3.730  14.954  0.00  0.00    +0.200 HD
ATOM     11  H   UNL     1      17.686  -3.987  14.968  0.00  0.00    +0.200 HD
ATOM     12  H   UNL     1      18.323  -2.630  15.695  0.00  0.00    +0.200 HD
ENDBRANCH   8   9
ENDBRANCH   5   8
ENDBRANCH   2   3
TORSDOF 3
