REMARK  Name = 4pnk_ligand
REMARK  4 active torsions:
REMARK  status: ('A' for Active; 'I' for Inactive)
REMARK    1  A    between atoms: CAH_8  and  NAJ_10
REMARK    2  A    between atoms: CAK_11  and  CAM_13
REMARK    3  A    between atoms: CAN_14  and  CAS_19
REMARK    4  A    between atoms: CAR_18  and  CAU_21
REMARK                            x       y       z     vdW  Elec       q    Type
REMARK                         _______ _______ _______ _____ _____    ______ ____
ROOT
ATOM      8  C   UNL     1     -18.508  29.377  18.415  0.00  0.00    +0.052 C 
ATOM      9  C   UNL     1     -17.899  29.676  17.107  0.00  0.00    +0.162 C 
ATOM     17  N   UNL     1     -17.024  30.833  17.165  0.00  0.00    -0.252 N 
ATOM     18  H   UNL     1     -16.586  31.148  16.323  0.00  0.00    +0.189 HD
ATOM     19  C   UNL     1     -16.782  31.494  18.306  0.00  0.00    +0.298 C 
ATOM     20  O   UNL     1     -15.994  32.468  18.266  0.00  0.00    -0.387 OA
ATOM     21  N   UNL     1     -17.342  31.149  19.473  0.00  0.00    -0.211 N 
ATOM     22  H   UNL     1     -17.129  31.674  20.297  0.00  0.00    +0.236 HD
ATOM     23  C   UNL     1     -18.186  30.107  19.549  0.00  0.00    +0.064 C 
ATOM     24  C   UNL     1     -18.790  29.742  20.884  0.00  0.00    +0.133 C 
ENDROOT
BRANCH   9  10
ATOM     10  C   UNL     1     -17.136  28.425  16.859  0.00  0.00    -0.021 A 
ATOM     11  C   UNL     1     -16.354  27.835  17.872  0.00  0.00    -0.005 A 
ATOM     12  C   UNL     1     -15.704  26.632  17.625  0.00  0.00    +0.023 A 
ATOM     13  C   UNL     1     -15.824  26.040  16.377  0.00  0.00    +0.125 A 
ATOM     14  F   UNL     1     -15.179  24.916  16.111  0.00  0.00    -0.190 F 
ATOM     15  C   UNL     1     -16.582  26.605  15.372  0.00  0.00    +0.023 A 
ATOM     16  C   UNL     1     -17.250  27.796  15.615  0.00  0.00    -0.005 A 
ENDBRANCH   9  10
BRANCH   8   7
ATOM      5  N   UNL     1     -20.593  28.305  17.738  0.00  0.00    -0.245 N 
ATOM      6  H   UNL     1     -20.647  29.080  17.108  0.00  0.00    +0.223 HD
ATOM      7  C   UNL     1     -19.466  28.241  18.538  0.00  0.00    +0.183 C 
ATOM     25  O   UNL     1     -19.135  27.400  19.381  0.00  0.00    -0.411 OA
BRANCH   5   4
ATOM      1  C   UNL     1     -25.030  26.513  16.353  0.00  0.00    +0.242 A 
ATOM      2  C   UNL     1     -23.771  26.639  17.015  0.00  0.00    +0.019 A 
ATOM      3  C   UNL     1     -22.774  27.610  16.922  0.00  0.00    +0.025 A 
ATOM      4  C   UNL     1     -21.646  27.424  17.711  0.00  0.00    +0.065 A 
ATOM     26  C   UNL     1     -21.617  26.320  18.551  0.00  0.00    +0.009 A 
ATOM     27  C   UNL     1     -22.612  25.381  18.637  0.00  0.00    -0.015 A 
ATOM     28  C   UNL     1     -23.692  25.554  17.856  0.00  0.00    -0.031 A 
ATOM     29  N   UNL     1     -24.808  24.838  17.732  0.00  0.00    -0.343 NA
ATOM     30  N   UNL     1     -25.602  25.385  16.859  0.00  0.00    -0.246 N 
ATOM     31  H   UNL     1     -26.527  25.019  16.590  0.00  0.00    +0.293 HD
ENDBRANCH   5   4
ENDBRANCH   8   7
TORSDOF 3
