REMARK  Name = 5IA2
REMARK  8 active torsions:
REMARK  status: ('A' for Active; 'I' for Inactive)
REMARK    1  A    between atoms: C_4  and  O_5
REMARK    2  A    between atoms: N_6  and  C_7
REMARK    3  A    between atoms: N_14  and  C_24
REMARK    4  A    between atoms: C_15  and  C_16
REMARK    5  A    between atoms: C_17  and  C_18
REMARK    6  A    between atoms: C_22  and  O_23
REMARK    7  A    between atoms: C_29  and  O_30
REMARK    8  A    between atoms: O_30  and  C_31
REMARK                            x       y       z     vdW  Elec       q    Type
REMARK                         _______ _______ _______ _____ _____    ______ ____
ROOT
ATOM      1  O   UNL     1     -85.207 -10.652   5.106  0.00  0.00    -0.244 OA
ATOM      2  C   UNL     1     -86.229 -11.036   5.670  0.00  0.00    +0.353 C 
ATOM      3  N   UNL     1     -86.216 -11.353   6.985  0.00  0.00    -0.278 N 
ATOM      4  C   UNL     1     -87.318 -11.772   7.621  0.00  0.00    +0.170 C 
ATOM      5  N   UNL     1     -87.548 -12.150   8.925  0.00  0.00    -0.193 NA
ATOM      6  C   UNL     1     -88.873 -12.481   9.034  0.00  0.00    +0.223 C 
ATOM      7  N   UNL     1     -89.742 -12.928   9.964  0.00  0.00    -0.275 N 
ATOM     16  C   UNL     1     -90.962 -13.061   9.388  0.00  0.00    +0.074 C 
ATOM     26  C   UNL     1     -90.821 -12.686   7.990  0.00  0.00    +0.121 C 
ATOM     27  N   UNL     1     -89.516 -12.342   7.831  0.00  0.00    -0.277 NA
ATOM     28  C   UNL     1     -88.563 -11.895   6.920  0.00  0.00    +0.154 C 
ATOM     29  C   UNL     1     -88.543 -11.547   5.568  0.00  0.00    +0.245 C 
ATOM     32  C   UNL     1     -84.944 -11.248   7.781  0.00  0.00    +0.156 C 
ATOM     33  N   UNL     1     -87.395 -11.138   4.974  0.00  0.00    -0.156 NA
ENDROOT
BRANCH  16  17
ATOM     17  C   UNL     1     -92.150 -13.553  10.203  0.00  0.00    +0.007 A 
ATOM     18  C   UNL     1     -92.619 -12.745  11.276  0.00  0.00    +0.055 A 
ATOM     19  C   UNL     1     -93.664 -13.190  12.050  0.00  0.00    +0.117 A 
ATOM     22  C   UNL     1     -94.249 -14.436  11.802  0.00  0.00    +0.045 A 
ATOM     23  C   UNL     1     -93.756 -15.270  10.714  0.00  0.00    +0.007 A 
ATOM     24  C   UNL     1     -92.715 -14.821   9.948  0.00  0.00    -0.041 A 
ATOM     25  C   UNL     1     -92.178 -15.695   8.776  0.00  0.00    +0.044 C 
BRANCH  19  20
ATOM     20  O   UNL     1     -94.101 -12.413  13.044  0.00  0.00    -0.507 OA
ATOM     21  H   UNL     1     -95.113 -12.181  12.889  0.00  0.00    +0.292 HD
ENDBRANCH  19  20
ENDBRANCH  16  17
BRANCH   7   8
ATOM      8  C   UNL     1     -89.385 -13.173  11.401  0.00  0.00    +0.091 A 
ATOM      9  C   UNL     1     -89.136 -12.072  12.159  0.00  0.00    +0.144 A 
ATOM     12  C   UNL     1     -88.798 -12.227  13.526  0.00  0.00    +0.048 A 
ATOM     13  C   UNL     1     -88.725 -13.489  14.062  0.00  0.00    +0.004 A 
ATOM     14  C   UNL     1     -88.982 -14.606  13.282  0.00  0.00    +0.002 A 
ATOM     15  C   UNL     1     -89.319 -14.458  11.945  0.00  0.00    +0.030 A 
BRANCH   9  10
ATOM     10  O   UNL     1     -89.219 -10.812  11.558  0.00  0.00    -0.493 OA
ATOM     11  C   UNL     1     -88.856  -9.683  12.367  0.00  0.00    +0.277 C 
ENDBRANCH   9  10
ENDBRANCH   7   8
BRANCH  29  30
ATOM     30  O   UNL     1     -89.767 -11.642   4.826  0.00  0.00    -0.491 OA
ATOM     31  H   UNL     1     -90.016 -10.698   4.439  0.00  0.00    +0.294 HD
ENDBRANCH  29  30
TORSDOF 5
