REMARK  Name = 3qts_ligand
REMARK  7 active torsions:
REMARK  status: ('A' for Active; 'I' for Inactive)
REMARK    1  A    between atoms: C2_4  and  O6_11
REMARK    2  A    between atoms: N2_5  and  C13_16
REMARK    3  A    between atoms: N3_7  and  C15_18
REMARK    4  A    between atoms: O3_8  and  C11_14
REMARK    5  A    between atoms: O6_11  and  C7_12
REMARK    6  A    between atoms: C10_13  and  C11_14
REMARK    7  A    between atoms: C11_14  and  C12_15
REMARK                            x       y       z     vdW  Elec       q    Type
REMARK                         _______ _______ _______ _____ _____    ______ ____
ROOT
ATOM      6  C   UNL     1      92.919  80.185 -49.998  0.00  0.00    +0.058 A 
ATOM      7  C   UNL     1      92.584  80.846 -51.172  0.00  0.00    +0.054 A 
ATOM     11  N   UNL     1      91.588  81.767 -51.021  0.00  0.00    -0.302 NA
ATOM     12  C   UNL     1      91.166  81.813 -49.736  0.00  0.00    +0.188 A 
ATOM     13  N   UNL     1      90.147  82.680 -49.343  0.00  0.00    -0.242 N 
ATOM     14  H   UNL     1      89.920  83.431 -50.010  0.00  0.00    +0.219 HD
ATOM     21  S   UNL     1      91.999  80.725 -48.697  0.00  0.00    +0.002 S 
ENDROOT
BRANCH  13  15
ATOM     15  C   UNL     1      89.387  82.667 -48.158  0.00  0.00    +0.066 A 
ATOM     16  C   UNL     1      88.373  83.720 -47.987  0.00  0.00    +0.015 A 
ATOM     17  C   UNL     1      87.568  83.771 -46.792  0.00  0.00    -0.013 A 
ATOM     18  C   UNL     1      87.736  82.771 -45.711  0.00  0.00    -0.022 A 
ATOM     19  C   UNL     1      88.729  81.705 -45.845  0.00  0.00    -0.013 A 
ATOM     20  C   UNL     1      89.538  81.648 -47.032  0.00  0.00    +0.015 A 
ENDBRANCH  13  15
BRANCH   7   8
ATOM      8  N   UNL     1      93.173  80.596 -52.366  0.00  0.00    -0.352 N 
ATOM      9  H   UNL     1      92.872  81.110 -53.206  0.00  0.00    +0.162 HD
ATOM     10  H   UNL     1      93.921  79.892 -52.434  0.00  0.00    +0.162 HD
ENDBRANCH   7   8
BRANCH   6   5
ATOM      5  C   UNL     1      93.956  79.104 -49.833  0.00  0.00    +0.198 C 
BRANCH   5   4
ATOM      1  C   UNL     1      94.697  77.115 -45.928  0.00  0.00    +0.008 A 
ATOM      2  C   UNL     1      94.501  76.310 -47.156  0.00  0.00    -0.020 A 
ATOM      3  C   UNL     1      94.259  76.984 -48.413  0.00  0.00    -0.022 A 
ATOM      4  C   UNL     1      94.206  78.458 -48.501  0.00  0.00    -0.018 A 
ATOM     24  C   UNL     1      94.407  79.260 -47.261  0.00  0.00    +0.019 A 
ATOM     25  C   UNL     1      94.649  78.604 -45.985  0.00  0.00    +0.084 A 
BRANCH  25  26
ATOM     26  O   UNL     1      94.831  79.429 -44.839  0.00  0.00    -0.323 OA
ATOM     27  C   UNL     1      95.062  79.002 -43.590  0.00  0.00    +0.232 C 
ENDBRANCH  25  26
ENDBRANCH   5   4
BRANCH   5  22
ATOM     22  O   UNL     1      94.647  78.715 -50.912  0.00  0.00    -0.373 OA
ATOM     23  H   UNL     1      94.367  79.222 -51.665  0.00  0.00    +0.215 HD
ENDBRANCH   5  22
ENDBRANCH   6   5
TORSDOF 6
