REMARK  Name = 2b52_ligand
REMARK  6 active torsions:
REMARK  status: ('A' for Active; 'I' for Inactive)
REMARK    1  A    between atoms: N3_3  and  N19_8
REMARK    2  A    between atoms: N6_6  and  C15_7
REMARK    3  A    between atoms: N21_10  and  C22_11
REMARK    4  A    between atoms: C36_22  and  C37_23
REMARK    5  A    between atoms: C39_25  and  C46_29
REMARK    6  A    between atoms: C41_27  and  C42_28
REMARK                            x       y       z     vdW  Elec       q    Type
REMARK                         _______ _______ _______ _____ _____    ______ ____
ROOT
ATOM     15  C   UNL     1      80.079  59.727  14.795  0.00  0.00    +0.085 A 
ATOM     16  C   UNL     1      81.038  59.746  13.675  0.00  0.00    +0.054 A 
ATOM     17  C   UNL     1      81.372  60.813  12.742  0.00  0.00    +0.140 C 
ATOM     18  O   UNL     1      80.854  61.931  12.739  0.00  0.00    -0.367 OA
ATOM     19  C   UNL     1      82.316  60.216  11.807  0.00  0.00    +0.051 A 
ATOM     20  C   UNL     1      83.055  60.484  10.585  0.00  0.00    +0.046 A 
ATOM     28  N   UNL     1      83.704  59.264  10.296  0.00  0.00    -0.222 NA
ATOM     29  N   UNL     1      83.400  58.154  11.283  0.00  0.00    -0.217 N 
ATOM     30  H   UNL     1      83.727  57.177  11.298  0.00  0.00    +0.256 HD
ATOM     31  C   UNL     1      82.544  58.835  12.175  0.00  0.00    +0.099 A 
ATOM     32  C   UNL     1      81.749  58.508  13.340  0.00  0.00    +0.012 A 
ATOM     33  C   UNL     1      81.499  57.274  14.091  0.00  0.00    -0.007 A 
ATOM     34  C   UNL     1      80.527  57.271  15.203  0.00  0.00    -0.006 A 
ATOM     35  C   UNL     1      79.803  58.500  15.577  0.00  0.00    +0.020 A 
ENDROOT
BRANCH  20  21
ATOM     21  C   UNL     1      83.083  61.580   9.625  0.00  0.00    +0.050 A 
ATOM     22  C   UNL     1      84.107  61.905   8.634  0.00  0.00    -0.000 A 
ATOM     23  C   UNL     1      85.403  61.188   8.399  0.00  0.00    +0.086 C 
ATOM     24  N   UNL     1      83.810  63.010   7.798  0.00  0.00    -0.310 NA
ATOM     25  C   UNL     1      82.548  63.592   8.086  0.00  0.00    +0.089 A 
ATOM     26  C   UNL     1      81.975  64.782   7.328  0.00  0.00    +0.156 C 
ATOM     27  S   UNL     1      81.696  62.739   9.452  0.00  0.00    -0.009 S 
ENDBRANCH  20  21
BRANCH  15  13
ATOM      9  N   UNL     1      78.426  62.635  16.235  0.00  0.00    -0.230 N 
ATOM     10  H   UNL     1      78.700  63.009  17.121  0.00  0.00    +0.239 HD
ATOM     11  C   UNL     1      78.665  61.339  16.007  0.00  0.00    +0.326 C 
ATOM     12  O   UNL     1      78.133  60.471  16.709  0.00  0.00    -0.386 OA
ATOM     13  N   UNL     1      79.494  60.999  15.019  0.00  0.00    -0.211 N 
ATOM     14  H   UNL     1      79.728  61.719  14.366  0.00  0.00    +0.229 HD
BRANCH   9   7
ATOM      1  C   UNL     1      75.619  64.732  14.806  0.00  0.00    +0.184 C 
ATOM      2  N   UNL     1      76.220  65.362  13.607  0.00  0.00    +0.240 N 
ATOM      3  H   UNL     1      76.066  64.676  12.884  0.00  0.00    +0.203 HD
ATOM      4  C   UNL     1      75.437  66.504  13.131  0.00  0.00    +0.191 C 
ATOM      5  C   UNL     1      77.706  65.464  13.624  0.00  0.00    +0.184 C 
ATOM      6  C   UNL     1      78.391  64.157  14.039  0.00  0.00    +0.208 C 
ATOM      7  N   UNL     1      77.772  63.574  15.249  0.00  0.00    +0.379 N 
ATOM      8  H   UNL     1      77.809  64.402  15.823  0.00  0.00    +0.230 HD
ATOM     36  C   UNL     1      76.304  63.415  15.133  0.00  0.00    +0.208 C 
ENDBRANCH   9   7
ENDBRANCH  15  13
TORSDOF 3
