REMARK  Name = 3FLY
REMARK  6 active torsions:
REMARK  status: ('A' for Active; 'I' for Inactive)
REMARK    1  A    between atoms: C_6  and  O_20
REMARK    2  A    between atoms: C_9  and  C_10
REMARK    3  A    between atoms: C_9  and  C_11
REMARK    4  A    between atoms: C_9  and  N_25
REMARK    5  A    between atoms: C_12  and  O_20
REMARK    6  A    between atoms: N_22  and  C_23
REMARK                            x       y       z     vdW  Elec       q    Type
REMARK                         _______ _______ _______ _____ _____    ______ ____
ROOT
ATOM      1  C   UNL     1      21.484   8.610  30.753  0.00  0.00    +0.097 A 
ATOM      2  C   UNL     1      21.424   9.994  30.932  0.00  0.00    +0.037 A 
ATOM      3  C   UNL     1      20.201  10.675  30.933  0.00  0.00    +0.065 C 
ATOM      4  C   UNL     1      20.158  12.064  31.116  0.00  0.00    +0.193 C 
ATOM     14  C   UNL     1      21.344  12.771  31.294  0.00  0.00    +0.295 C 
ATOM     15  N   UNL     1      22.591  12.097  31.293  0.00  0.00    -0.293 N 
ATOM     16  C   UNL     1      23.846  12.845  31.481  0.00  0.00    +0.154 C 
ATOM     17  O   UNL     1      21.296  14.010  31.453  0.00  0.00    -0.264 OA
ATOM     18  C   UNL     1      22.615  10.697  31.111  0.00  0.00    +0.148 A 
ATOM     19  N   UNL     1      23.791  10.025  31.107  0.00  0.00    -0.194 NA
ATOM     20  C   UNL     1      23.826   8.681  30.932  0.00  0.00    +0.226 A 
ATOM     21  N   UNL     1      25.030   8.047  30.937  0.00  0.00    -0.247 NA
ATOM     25  N   UNL     1      22.673   7.980  30.757  0.00  0.00    -0.330 N 
ATOM     26  H   UNL     1      22.712   6.919  30.622  0.00  0.00    +0.168 HD
ENDROOT
BRANCH  21  22
ATOM     22  C   UNL     1      26.253   8.792  31.220  0.00  0.00    +0.103 C 
ATOM     23  C   UNL     1      26.915   9.198  29.904  0.00  0.00    +0.032 C 
ATOM     24  C   UNL     1      27.188   7.961  32.097  0.00  0.00    +0.032 C 
ENDBRANCH  21  22
BRANCH   4   5
ATOM      5  O   UNL     1      18.973  12.771  31.129  0.00  0.00    -0.448 OA
BRANCH   5   6
ATOM      6  C   UNL     1      17.728  12.183  31.112  0.00  0.00    +0.164 A 
ATOM      7  C   UNL     1      17.242  11.432  32.184  0.00  0.00    +0.168 A 
ATOM      8  F   UNL     1      17.983  11.244  33.292  0.00  0.00    -0.202 F 
ATOM      9  C   UNL     1      15.968  10.860  32.118  0.00  0.00    +0.080 A 
ATOM     10  C   UNL     1      15.185  11.039  30.977  0.00  0.00    +0.126 A 
ATOM     11  F   UNL     1      13.962  10.486  30.893  0.00  0.00    -0.205 F 
ATOM     12  C   UNL     1      15.670  11.788  29.907  0.00  0.00    +0.042 A 
ATOM     13  C   UNL     1      16.935  12.364  29.981  0.00  0.00    +0.052 A 
ENDBRANCH   5   6
ENDBRANCH   4   5
TORSDOF 3
