REMARK  Name = 3kad_ligand
REMARK  7 active torsions:
REMARK  status: ('A' for Active; 'I' for Inactive)
REMARK    1  A    between atoms: C8_8  and  C10_10
REMARK    2  A    between atoms: C10_10  and  C11_11
REMARK    3  A    between atoms: C11_11  and  N12_12
REMARK    4  A    between atoms: C11_11  and  C23_23
REMARK    5  A    between atoms: C13_13  and  C15_15
REMARK    6  A    between atoms: C15_15  and  C16_16
REMARK    7  A    between atoms: C16_16  and  C17_17
REMARK                            x       y       z     vdW  Elec       q    Type
REMARK                         _______ _______ _______ _____ _____    ______ ____
ROOT
ATOM      7  CA  UNL     1      25.853 -18.021  -2.313  0.00  0.00    +0.188 C 
ENDROOT
BRANCH   7  11
ATOM     11  N   UNL     1      26.137 -17.671  -3.692  0.00  0.00    -0.269 N 
ATOM     12  H   UNL     1      26.106 -18.383  -4.393  0.00  0.00    +0.188 HD
ATOM     13  C   UNL     1      26.437 -16.425  -4.045  0.00  0.00    +0.180 C 
ATOM     22  O   UNL     1      26.470 -15.499  -3.251  0.00  0.00    -0.397 OA
BRANCH  13  14
ATOM     14  C   UNL     1      26.742 -16.193  -5.505  0.00  0.00    +0.152 C 
BRANCH  14  15
ATOM     15  C   UNL     1      28.057 -15.433  -5.635  0.00  0.00    +0.088 C 
BRANCH  15  16
ATOM     16  C   UNL     1      28.596 -15.595  -7.037  0.00  0.00    -0.041 A 
ATOM     17  C   UNL     1      29.487 -14.660  -7.551  0.00  0.00    -0.004 A 
ATOM     18  C   UNL     1      29.983 -14.809  -8.841  0.00  0.00    -0.009 A 
ATOM     19  C   UNL     1      29.588 -15.893  -9.617  0.00  0.00    -0.013 A 
ATOM     20  C   UNL     1      28.697 -16.828  -9.103  0.00  0.00    -0.009 A 
ATOM     21  C   UNL     1      28.201 -16.679  -7.813  0.00  0.00    -0.004 A 
ENDBRANCH  15  16
ENDBRANCH  14  15
ENDBRANCH  13  14
ENDBRANCH   7  11
BRANCH   7   8
ATOM      8  C   UNL     1      24.583 -18.811  -2.194  0.00  0.00    +0.063 C 
ATOM      9  OXT UNL     1      24.044 -18.908  -1.071  0.00  0.00    -0.566 OA
ATOM     10  O   UNL     1      24.112 -19.341  -3.223  0.00  0.00    -0.566 OA
ENDBRANCH   7   8
BRANCH   7   6
ATOM      6  C   UNL     1      27.008 -18.826  -1.731  0.00  0.00    +0.179 C 
BRANCH   6   5
ATOM      1  C   UNL     1      31.466 -15.067  -0.188  0.00  0.00    -0.027 A 
ATOM      2  C   UNL     1      30.285 -15.643   0.266  0.00  0.00    -0.012 A 
ATOM      3  C   UNL     1      29.581 -16.517  -0.554  0.00  0.00    +0.021 A 
ATOM      4  N   UNL     1      28.434 -17.206  -0.379  0.00  0.00    -0.318 NA
ATOM      5  C   UNL     1      28.191 -17.916  -1.503  0.00  0.00    +0.125 A 
ATOM     23  N   UNL     1      29.185 -17.677  -2.388  0.00  0.00    -0.246 N 
ATOM     24  H   UNL     1      29.264 -18.083  -3.331  0.00  0.00    +0.232 HD
ATOM     25  C   UNL     1      30.055 -16.815  -1.823  0.00  0.00    +0.078 A 
ATOM     26  C   UNL     1      31.236 -16.240  -2.279  0.00  0.00    +0.012 A 
ATOM     27  C   UNL     1      31.941 -15.366  -1.460  0.00  0.00    -0.024 A 
ENDBRANCH   6   5
ENDBRANCH   7   6
TORSDOF 7
