REMARK  Name = 3cd8_ligand
REMARK  6 active torsions:
REMARK  status: ('A' for Active; 'I' for Inactive)
REMARK    1  A    between atoms: C4_3  and  C7_6
REMARK    2  A    between atoms: C13_9  and  O1_21
REMARK    3  A    between atoms: C22_14  and  O2_15
REMARK    4  A    between atoms: O2_15  and  C19_16
REMARK    5  A    between atoms: O1_21  and  C12_22
REMARK    6  A    between atoms: C12_22  and  C11_23
REMARK                            x       y       z     vdW  Elec       q    Type
REMARK                         _______ _______ _______ _____ _____    ______ ____
ROOT
ATOM      1  N   UNL     1      18.870  12.958  57.323  0.00  0.00    -0.132 NA
ATOM      2  N   UNL     1      19.733  13.740  56.910  0.00  0.00    -0.097 N 
ATOM      3  C   UNL     1      20.766  13.644  55.990  0.00  0.00    +0.203 A 
ATOM      4  N   UNL     1      21.391  14.822  55.932  0.00  0.00    -0.266 NA
ATOM      5  N   UNL     1      20.853  15.623  56.712  0.00  0.00    -0.279 NA
ATOM     20  C   UNL     1      19.826  15.059  57.354  0.00  0.00    +0.179 A 
ATOM     21  C   UNL     1      18.922  15.522  58.306  0.00  0.00    +0.081 A 
ATOM     22  C   UNL     1      17.969  14.624  58.759  0.00  0.00    +0.055 A 
ATOM     23  C   UNL     1      17.961  13.325  58.247  0.00  0.00    +0.097 A 
ENDROOT
BRANCH  23  24
ATOM     24  C   UNL     1      17.015  12.389  58.663  0.00  0.00    +0.007 A 
ATOM     25  C   UNL     1      17.080  11.086  58.158  0.00  0.00    +0.014 A 
ATOM     26  C   UNL     1      16.143  10.130  58.547  0.00  0.00    +0.003 A 
ATOM     27  C   UNL     1      15.128  10.483  59.437  0.00  0.00    +0.003 A 
ATOM     28  C   UNL     1      15.054  11.785  59.936  0.00  0.00    +0.003 A 
ATOM     29  C   UNL     1      15.995  12.738  59.552  0.00  0.00    +0.014 A 
ENDBRANCH  23  24
BRANCH   3   6
ATOM      6  C   UNL     1      21.099  12.506  55.252  0.00  0.00    +0.331 C 
BRANCH   6   7
ATOM      7  O   UNL     1      20.996  11.164  55.843  0.00  0.00    -0.283 OA
BRANCH   7   8
ATOM      8  C   UNL     1      21.996  10.785  56.702  0.00  0.00    +0.124 A 
ATOM      9  C   UNL     1      23.215  11.461  56.769  0.00  0.00    +0.047 A 
ATOM     10  C   UNL     1      24.199  11.025  57.661  0.00  0.00    +0.070 A 
ATOM     11  N   UNL     1      23.989   9.972  58.440  0.00  0.00    -0.324 NA
ATOM     12  C   UNL     1      22.832   9.288  58.409  0.00  0.00    +0.024 A 
ATOM     13  C   UNL     1      22.652   8.186  59.251  0.00  0.00    +0.030 A 
ATOM     14  C   UNL     1      21.446   7.475  59.220  0.00  0.00    +0.095 A 
ATOM     17  C   UNL     1      20.431   7.881  58.350  0.00  0.00    +0.034 A 
ATOM     18  C   UNL     1      20.611   8.975  57.505  0.00  0.00    +0.017 A 
ATOM     19  C   UNL     1      21.808   9.683  57.535  0.00  0.00    +0.035 A 
BRANCH  14  15
ATOM     15  O   UNL     1      21.194   6.387  60.015  0.00  0.00    -0.318 OA
ATOM     16  C   UNL     1      22.249   5.933  60.878  0.00  0.00    +0.235 C 
ENDBRANCH  14  15
ENDBRANCH   7   8
ENDBRANCH   6   7
ENDBRANCH   3   6
TORSDOF 5
