REMARK  Name = EB0
REMARK  4 active torsions:
REMARK  status: ('A' for Active; 'I' for Inactive)
REMARK    1  A    between atoms: CAN_2  and  NAK_3
REMARK    2  A    between atoms: CAC_15  and  SAP_16
REMARK    3  A    between atoms: SAP_16  and  NAS_19
REMARK    4  A    between atoms: NAS_19  and  CAT_20
REMARK                            x       y       z     vdW  Elec       q    Type
REMARK                         _______ _______ _______ _____ _____    ______ ____
ROOT
ATOM      3  N   UNL     1     -12.538   5.665   0.720  0.00  0.00    -0.295 N 
ATOM      4  C   UNL     1     -11.550   6.419   0.223  0.00  0.00    +0.063 A 
ATOM      5  C   UNL     1     -10.232   6.542   0.531  0.00  0.00    +0.019 A 
ATOM      6  C   UNL     1      -9.447   7.460  -0.180  0.00  0.00    +0.022 A 
ATOM      7  C   UNL     1     -10.003   8.188  -1.239  0.00  0.00    +0.127 A 
ATOM      8  C   UNL     1     -11.381   8.013  -1.544  0.00  0.00    +0.021 A 
ATOM      9  C   UNL     1     -12.092   8.672  -2.581  0.00  0.00    +0.001 A 
ATOM     10  C   UNL     1     -13.461   8.387  -2.774  0.00  0.00    +0.000 A 
ATOM     11  C   UNL     1     -14.081   7.445  -1.933  0.00  0.00    +0.005 A 
ATOM     12  C   UNL     1     -13.375   6.827  -0.963  0.00  0.00    +0.058 A 
ATOM     24  C   UNL     1     -12.067   7.115  -0.803  0.00  0.00    +0.022 A 
ATOM     25  C   UNL     1     -13.652   5.910  -0.005  0.00  0.00    +0.261 A 
ATOM     26  O   UNL     1     -14.729   5.309   0.154  0.00  0.00    -0.267 OA
ENDROOT
BRANCH   7  13
ATOM     13  S   UNL     1      -8.923   9.284  -2.155  0.00  0.00    +0.093 S 
ATOM     14  O   UNL     1      -7.516   9.066  -1.601  0.00  0.00    -0.148 OA
ATOM     15  O   UNL     1      -9.395  10.719  -1.968  0.00  0.00    -0.148 OA
BRANCH  13  16
ATOM     16  N   UNL     1      -9.026   8.907  -3.709  0.00  0.00    -0.097 NA
BRANCH  16  17
ATOM     17  C   UNL     1      -8.937   7.644  -4.201  0.00  0.00    +0.091 A 
ATOM     18  C   UNL     1      -8.182   6.601  -3.663  0.00  0.00    +0.020 A 
ATOM     19  C   UNL     1      -8.124   5.349  -4.291  0.00  0.00    +0.031 A 
ATOM     20  C   UNL     1      -8.816   5.124  -5.467  0.00  0.00    +0.140 A 
ATOM     21  C   UNL     1      -9.559   6.157  -6.020  0.00  0.00    +0.031 A 
ATOM     22  F   UNL     1      -8.798   3.944  -6.079  0.00  0.00    -0.204 F 
ATOM     23  C   UNL     1      -9.597   7.400  -5.396  0.00  0.00    +0.020 A 
ENDBRANCH  16  17
ENDBRANCH  13  16
ENDBRANCH   7  13
BRANCH   3   2
ATOM      1  C   UNL     1     -12.037   3.424   1.353  0.00  0.00    +0.027 C 
ATOM      2  C   UNL     1     -12.424   4.764   1.905  0.00  0.00    +0.109 C 
ENDBRANCH   3   2
TORSDOF 4
