REMARK  Name = 4knb_ligand
REMARK  6 active torsions:
REMARK  status: ('A' for Active; 'I' for Inactive)
REMARK    1  A    between atoms: C1_9  and  C7_10
REMARK    2  A    between atoms: C7_10  and  C8_11
REMARK    3  A    between atoms: C7_10  and  O9_12
REMARK    4  A    between atoms: O9_12  and  C13_13
REMARK    5  A    between atoms: C21_17  and  C23_23
REMARK    6  A    between atoms: N26_25  and  C28_28
REMARK                            x       y       z     vdW  Elec       q    Type
REMARK                         _______ _______ _______ _____ _____    ______ ____
ROOT
ATOM      7  C   UNL     1       6.623  -4.764  22.249  0.00  0.00    +0.168 A 
ATOM      8  C   UNL     1       6.909  -5.942  22.944  0.00  0.00    +0.126 A 
ATOM      9  N   UNL     1       7.841  -6.865  22.429  0.00  0.00    -0.332 N 
ATOM     10  H   UNL     1       8.316  -6.673  21.535  0.00  0.00    +0.170 HD
ATOM     11  H   UNL     1       8.047  -7.731  22.946  0.00  0.00    +0.170 HD
ATOM     12  N   UNL     1       6.280  -6.227  24.162  0.00  0.00    -0.312 NA
ATOM     13  C   UNL     1       5.357  -5.353  24.715  0.00  0.00    +0.041 A 
ATOM     14  C   UNL     1       5.080  -4.197  24.024  0.00  0.00    +0.002 A 
ATOM     15  C   UNL     1       4.252  -3.143  24.282  0.00  0.00    -0.019 A 
ATOM     29  C   UNL     1       4.437  -2.342  23.169  0.00  0.00    +0.183 A 
ATOM     30  O   UNL     1       5.279  -2.820  22.406  0.00  0.00    -0.260 OA
ATOM     31  C   UNL     1       5.690  -3.899  22.825  0.00  0.00    +0.161 A 
ENDROOT
BRANCH  15  16
ATOM     16  C   UNL     1       3.379  -2.864  25.467  0.00  0.00    -0.019 A 
ATOM     17  C   UNL     1       2.398  -1.903  25.522  0.00  0.00    +0.064 A 
ATOM     18  N   UNL     1       1.828  -1.933  26.740  0.00  0.00    -0.217 NA
ATOM     19  N   UNL     1       2.382  -2.842  27.426  0.00  0.00    -0.206 N 
ATOM     28  C   UNL     1       3.351  -3.454  26.711  0.00  0.00    +0.147 A 
BRANCH  19  20
ATOM     20  C   UNL     1       2.009  -3.165  28.824  0.00  0.00    +0.159 C 
ATOM     21  C   UNL     1       0.473  -3.120  28.996  0.00  0.00    +0.090 C 
ATOM     22  C   UNL     1       0.053  -3.367  30.451  0.00  0.00    +0.132 C 
ATOM     23  N   UNL     1       0.714  -2.400  31.339  0.00  0.00    +0.227 N 
ATOM     24  H   UNL     1       0.448  -2.608  32.289  0.00  0.00    +0.201 HD
ATOM     25  H   UNL     1       0.395  -1.475  31.096  0.00  0.00    +0.201 HD
ATOM     26  C   UNL     1       2.183  -2.421  31.253  0.00  0.00    +0.132 C 
ATOM     27  C   UNL     1       2.655  -2.174  29.809  0.00  0.00    +0.090 C 
ENDBRANCH  19  20
ENDBRANCH  15  16
BRANCH   7   6
ATOM      6  O   UNL     1       7.265  -4.522  21.050  0.00  0.00    -0.304 OA
BRANCH   6   5
ATOM      5  C   UNL     1       7.238  -3.303  20.286  0.00  0.00    +0.190 C 
ATOM     32  C   UNL     1       7.772  -3.538  18.868  0.00  0.00    +0.060 C 
BRANCH   5   4
ATOM      1  F   UNL     1      11.371  -1.807  22.392  0.00  0.00    -0.184 F 
ATOM      2  C   UNL     1      10.149  -1.504  21.970  0.00  0.00    +0.140 A 
ATOM      3  C   UNL     1       9.371  -2.493  21.392  0.00  0.00    +0.077 A 
ATOM      4  C   UNL     1       8.082  -2.213  20.936  0.00  0.00    +0.016 A 
ATOM     33  C   UNL     1       7.593  -0.913  21.066  0.00  0.00    +0.040 A 
ATOM     34 CL   UNL     1       6.019  -0.508  20.516  0.00  0.00    -0.081 Cl
ATOM     35  C   UNL     1       8.371   0.077  21.653  0.00  0.00    +0.004 A 
ATOM     36 CL   UNL     1      10.053  -4.064  21.268  0.00  0.00    -0.079 Cl
ATOM     37  C   UNL     1       9.650  -0.218  22.105  0.00  0.00    +0.021 A 
ENDBRANCH   5   4
ENDBRANCH   6   5
ENDBRANCH   7   6
TORSDOF 5
