REMARK  Name = 5KZ7
REMARK  6 active torsions:
REMARK  status: ('A' for Active; 'I' for Inactive)
REMARK    1  A    between atoms: C_3  and  N_12
REMARK    2  A    between atoms: C_6  and  C_17
REMARK    3  A    between atoms: C_6  and  C_18
REMARK    4  A    between atoms: N_16  and  C_20
REMARK    5  A    between atoms: C_20  and  C_21
REMARK    6  A    between atoms: C_20  and  C_27
REMARK                            x       y       z     vdW  Elec       q    Type
REMARK                         _______ _______ _______ _____ _____    ______ ____
ROOT
ATOM      1  C   UNL     1      42.935  32.488  37.184  0.00  0.00    +0.094 A 
ATOM      2  C   UNL     1      41.931  32.816  36.256  0.00  0.00    +0.023 A 
ATOM      3  C   UNL     1      42.368  32.823  34.945  0.00  0.00    +0.137 A 
ATOM      4  N   UNL     1      41.305  33.166  34.175  0.00  0.00    -0.248 N 
ATOM     14  C   UNL     1      40.214  33.319  34.967  0.00  0.00    +0.232 C 
ATOM     15  O   UNL     1      39.002  33.634  34.534  0.00  0.00    -0.274 OA
ATOM     16  N   UNL     1      43.649  32.574  34.568  0.00  0.00    -0.197 NA
ATOM     17  C   UNL     1      44.562  32.288  35.524  0.00  0.00    +0.230 A 
ATOM     18  N   UNL     1      45.808  32.012  35.081  0.00  0.00    -0.211 NA
ATOM     25  C   UNL     1      40.553  33.100  36.313  0.00  0.00    +0.071 C 
ATOM     26  C   UNL     1      40.219  34.352  37.100  0.00  0.00    +0.026 C 
ATOM     27  C   UNL     1      39.772  31.916  36.862  0.00  0.00    +0.026 C 
ATOM     28  N   UNL     1      44.228  32.246  36.834  0.00  0.00    -0.330 N 
ATOM     29  H   UNL     1      44.964  32.027  37.579  0.00  0.00    +0.168 HD
ENDROOT
BRANCH  18  19
ATOM     19  C   UNL     1      46.393  31.996  33.863  0.00  0.00    +0.086 A 
ATOM     20  C   UNL     1      47.753  32.326  33.761  0.00  0.00    +0.138 A 
ATOM     21  N   UNL     1      48.471  32.365  32.605  0.00  0.00    -0.261 NA
ATOM     22  C   UNL     1      47.788  32.076  31.462  0.00  0.00    +0.111 A 
ATOM     23  C   UNL     1      46.433  31.734  31.428  0.00  0.00    +0.022 A 
ATOM     24  C   UNL     1      45.756  31.702  32.642  0.00  0.00    +0.031 A 
ENDBRANCH  18  19
BRANCH   4   5
ATOM      5  C   UNL     1      41.331  33.353  32.708  0.00  0.00    +0.110 C 
ATOM      6  C   UNL     1      42.137  34.569  32.222  0.00  0.00    +0.033 C 
BRANCH   5   7
ATOM      7  C   UNL     1      41.517  32.065  31.960  0.00  0.00    -0.027 A 
ATOM      8  C   UNL     1      42.289  31.959  30.792  0.00  0.00    +0.008 A 
ATOM      9  C   UNL     1      42.393  30.732  30.124  0.00  0.00    +0.039 A 
ATOM     10  C   UNL     1      41.718  29.603  30.632  0.00  0.00    +0.123 A 
ATOM     11  F   UNL     1      41.835  28.407  30.008  0.00  0.00    -0.205 F 
ATOM     12  C   UNL     1      40.935  29.706  31.796  0.00  0.00    +0.039 A 
ATOM     13  C   UNL     1      40.838  30.937  32.446  0.00  0.00    +0.008 A 
ENDBRANCH   5   7
ENDBRANCH   4   5
TORSDOF 3
