REMARK  Name = A7Y
REMARK  6 active torsions:
REMARK  status: ('A' for Active; 'I' for Inactive)
REMARK    1  A    between atoms: C41_3  and  C38_24
REMARK    2  A    between atoms: C44_5  and  O51_34
REMARK    3  A    between atoms: C12_13  and  C7_28
REMARK    4  A    between atoms: C12_13  and  N15_30
REMARK    5  A    between atoms: C19_15  and  N27_31
REMARK    6  A    between atoms: C32_20  and  C34_21
REMARK                            x       y       z     vdW  Elec       q    Type
REMARK                         _______ _______ _______ _____ _____    ______ ____
ROOT
ATOM     13  C   UNL     1      19.939  10.785  10.894  0.00  0.00    +0.057 A 
ATOM     14  C   UNL     1      19.582  10.085  12.061  0.00  0.00    +0.022 A 
ATOM     15  C   UNL     1      20.170  10.339  13.309  0.00  0.00    +0.002 A 
ATOM     16  C   UNL     1      19.776   9.625  14.444  0.00  0.00    +0.000 A 
ATOM     17  C   UNL     1      18.782   8.650  14.345  0.00  0.00    +0.002 A 
ATOM     18  C   UNL     1      18.183   8.396  13.109  0.00  0.00    +0.019 A 
ATOM     19  C   UNL     1      18.576   9.113  11.980  0.00  0.00    +0.081 A 
ATOM     20  N   UNL     1      17.969   8.840  10.812  0.00  0.00    -0.245 NA
ATOM     21  C   UNL     1      18.312   9.480   9.682  0.00  0.00    +0.082 A 
ATOM     30  C   UNL     1      19.295  10.472   9.697  0.00  0.00    +0.024 A 
ENDROOT
BRANCH  21  22
ATOM     22  C   UNL     1      17.614   9.152   8.426  0.00  0.00    +0.021 A 
ATOM     23  C   UNL     1      16.305   8.662   8.404  0.00  0.00    +0.002 A 
ATOM     24  C   UNL     1      15.703   8.374   7.173  0.00  0.00    +0.003 A 
ATOM     25  C   UNL     1      16.408   8.580   5.979  0.00  0.00    +0.037 A 
ATOM     26  C   UNL     1      17.721   9.074   6.012  0.00  0.00    +0.139 A 
ATOM     29  C   UNL     1      18.306   9.355   7.239  0.00  0.00    +0.038 A 
BRANCH  26  27
ATOM     27  O   UNL     1      18.498   9.310   4.873  0.00  0.00    -0.471 OA
ATOM     28  C   UNL     1      17.952   9.174   3.556  0.00  0.00    +0.253 C 
ENDBRANCH  26  27
ENDBRANCH  21  22
BRANCH  13  12
ATOM     10  N   UNL     1      22.315  11.634  11.051  0.00  0.00    -0.275 N 
ATOM     11  C   UNL     1      23.245  12.765  10.993  0.00  0.00    +0.115 C 
ATOM     12  C   UNL     1      20.989  11.881  10.847  0.00  0.00    +0.249 C 
ATOM     31  O   UNL     1      20.562  13.003  10.626  0.00  0.00    -0.270 OA
BRANCH  10   9
ATOM      6  N   UNL     1      24.784   9.033  10.735  0.00  0.00    -0.268 NA
ATOM      7  C   UNL     1      24.530   8.847  12.180  0.00  0.00    +0.074 C 
ATOM      8  C   UNL     1      23.727  10.111  12.558  0.00  0.00    +0.039 C 
ATOM      9  C   UNL     1      22.780  10.268  11.341  0.00  0.00    +0.093 C 
ATOM     32  C   UNL     1      23.594   9.701  10.160  0.00  0.00    +0.092 C 
BRANCH   6   5
ATOM      5  C   UNL     1      25.292   7.870   9.970  0.00  0.00    +0.099 C 
BRANCH   5   4
ATOM      1  C   UNL     1      26.063   9.093   5.880  0.00  0.00    +0.058 A 
ATOM      2  C   UNL     1      27.043   9.271   6.859  0.00  0.00    +0.011 A 
ATOM      3  C   UNL     1      26.793   8.876   8.176  0.00  0.00    -0.002 A 
ATOM      4  C   UNL     1      25.566   8.295   8.517  0.00  0.00    -0.006 A 
ATOM     33  C   UNL     1      24.589   8.122   7.525  0.00  0.00    -0.002 A 
ATOM     34  C   UNL     1      24.837   8.516   6.211  0.00  0.00    +0.011 A 
ATOM     35 CL   UNL     1      26.362   9.587   4.230  0.00  0.00    -0.082 Cl
ENDBRANCH   5   4
ENDBRANCH   6   5
ENDBRANCH  10   9
ENDBRANCH  13  12
TORSDOF 6
