REMARK  Name = 3lau_ligand
REMARK  6 active torsions:
REMARK  status: ('A' for Active; 'I' for Inactive)
REMARK    1  A    between atoms: C3_3  and  N8_8
REMARK    2  A    between atoms: C10_10  and  C12_12
REMARK    3  A    between atoms: C11_11  and  C13_13
REMARK    4  A    between atoms: C13_13  and  C17_17
REMARK    5  A    between atoms: C17_17  and  C20_20
REMARK    6  A    between atoms: C21_21  and  O22_22
REMARK                            x       y       z     vdW  Elec       q    Type
REMARK                         _______ _______ _______ _____ _____    ______ ____
ROOT
ATOM      1  C   UNL     1      -5.551  -8.093  18.746  0.00  0.00    +0.076 A 
ATOM      2  C   UNL     1      -6.007  -6.783  18.972  0.00  0.00    +0.022 A 
ATOM      3  C   UNL     1      -6.201  -5.875  17.888  0.00  0.00    +0.006 A 
ATOM      4  C   UNL     1      -5.938  -6.255  16.552  0.00  0.00    -0.025 A 
ATOM     13  C   UNL     1      -5.482  -7.579  16.316  0.00  0.00    -0.002 A 
ATOM     14  C   UNL     1      -5.224  -9.283  19.562  0.00  0.00    +0.266 A 
ATOM     22  N   UNL     1      -4.832 -10.229  18.722  0.00  0.00    -0.260 N 
ATOM     23  H   UNL     1      -4.543 -11.178  19.000  0.00  0.00    +0.246 HD
ATOM     24  N   UNL     1      -4.864  -9.781  17.460  0.00  0.00    -0.452 NA
ATOM     25  C   UNL     1      -5.288  -8.474  17.367  0.00  0.00    -0.058 A 
ENDROOT
BRANCH   4   5
ATOM      5  C   UNL     1      -6.125  -5.281  15.428  0.00  0.00    -0.028 A 
ATOM      6  C   UNL     1      -5.056  -4.436  15.037  0.00  0.00    -0.002 A 
ATOM      7  C   UNL     1      -5.199  -3.500  13.983  0.00  0.00    +0.023 A 
ATOM      8  C   UNL     1      -6.427  -3.395  13.298  0.00  0.00    +0.089 A 
ATOM     11  C   UNL     1      -7.500  -4.232  13.675  0.00  0.00    +0.023 A 
ATOM     12  C   UNL     1      -7.347  -5.167  14.732  0.00  0.00    -0.002 A 
BRANCH   8   9
ATOM      9  O   UNL     1      -6.603  -2.494  12.273  0.00  0.00    -0.332 OA
ATOM     10  H   UNL     1      -7.488  -2.568  11.936  0.00  0.00    +0.249 HD
ENDBRANCH   8   9
ENDBRANCH   4   5
BRANCH  14  15
ATOM     15  N   UNL     1      -5.327  -9.355  21.043  0.00  0.00    -0.156 N 
ATOM     16  H   UNL     1      -4.566  -9.826  21.489  0.00  0.00    +0.270 HD
ATOM     17  C   UNL     1      -6.274  -8.893  21.891  0.00  0.00    +0.235 C 
ATOM     18  O   UNL     1      -7.302  -8.284  21.591  0.00  0.00    -0.370 OA
BRANCH  17  19
ATOM     19  C   UNL     1      -5.920  -9.200  23.353  0.00  0.00    +0.152 C 
BRANCH  19  20
ATOM     20  C   UNL     1      -7.078  -9.854  24.111  0.00  0.00    +0.020 C 
ATOM     21  C   UNL     1      -6.709 -10.151  25.571  0.00  0.00    +0.006 C 
ENDBRANCH  19  20
ENDBRANCH  17  19
ENDBRANCH  14  15
TORSDOF 5
