REMARK  Name = 5DWR
REMARK  6 active torsions:
REMARK  status: ('A' for Active; 'I' for Inactive)
REMARK    1  A    between atoms: C_1  and  C_32
REMARK    2  A    between atoms: C_3  and  N_30
REMARK    3  A    between atoms: C_4  and  N_22
REMARK    4  A    between atoms: C_5  and  C_6
REMARK    5  A    between atoms: C_10  and  C_11
REMARK    6  A    between atoms: C_27  and  C_28
REMARK                            x       y       z     vdW  Elec       q    Type
REMARK                         _______ _______ _______ _____ _____    ______ ____
ROOT
ATOM     16  N   UNL     1     -40.314  -2.431   0.165  0.00  0.00    -0.279 N 
ATOM     17  H   UNL     1     -40.753  -1.913   0.918  0.00  0.00    +0.155 HD
ATOM     18  C   UNL     1     -40.994  -2.511  -1.002  0.00  0.00    +0.267 C 
ATOM     19  O   UNL     1     -40.501  -2.853  -2.076  0.00  0.00    -0.268 OA
ENDROOT
BRANCH  18  20
ATOM     20  C   UNL     1     -42.457  -2.200  -0.876  0.00  0.00    +0.127 A 
ATOM     21  N   UNL     1     -42.935  -2.031   0.367  0.00  0.00    -0.239 NA
ATOM     22  C   UNL     1     -44.261  -1.920   0.532  0.00  0.00    +0.112 A 
ATOM     31  C   UNL     1     -45.136  -1.963  -0.554  0.00  0.00    +0.149 A 
ATOM     32  F   UNL     1     -46.473  -1.884  -0.375  0.00  0.00    -0.203 F 
ATOM     33  C   UNL     1     -44.638  -2.105  -1.827  0.00  0.00    +0.043 A 
ATOM     34  C   UNL     1     -43.269  -2.215  -2.005  0.00  0.00    +0.036 A 
BRANCH  22  23
ATOM     23  C   UNL     1     -44.735  -1.771   1.940  0.00  0.00    +0.073 A 
ATOM     24  C   UNL     1     -44.330  -2.620   2.960  0.00  0.00    +0.135 A 
ATOM     25  F   UNL     1     -43.397  -3.557   2.663  0.00  0.00    -0.205 F 
ATOM     26  C   UNL     1     -44.800  -2.550   4.251  0.00  0.00    +0.039 A 
ATOM     27  C   UNL     1     -45.727  -1.568   4.560  0.00  0.00    +0.006 A 
ATOM     28  C   UNL     1     -46.153  -0.672   3.592  0.00  0.00    +0.039 A 
ATOM     29  C   UNL     1     -45.650  -0.796   2.321  0.00  0.00    +0.135 A 
ATOM     30  F   UNL     1     -46.054   0.083   1.378  0.00  0.00    -0.205 F 
ENDBRANCH  22  23
ENDBRANCH  18  20
BRANCH  16  15
ATOM     10  C   UNL     1     -38.690  -3.313   1.763  0.00  0.00    -0.020 A 
ATOM     11  C   UNL     1     -37.380  -3.714   2.002  0.00  0.00    +0.025 A 
ATOM     12  C   UNL     1     -36.453  -3.666   0.982  0.00  0.00    +0.111 A 
ATOM     13  N   UNL     1     -36.729  -3.243  -0.250  0.00  0.00    -0.261 NA
ATOM     14  C   UNL     1     -37.985  -2.864  -0.485  0.00  0.00    +0.134 A 
ATOM     15  C   UNL     1     -39.009  -2.877   0.469  0.00  0.00    +0.055 A 
BRANCH  10   4
ATOM      1  C   UNL     1     -40.966  -1.874   4.542  0.00  0.00    -0.012 C 
ATOM      2  C   UNL     1     -41.044  -0.524   5.244  0.00  0.00    +0.007 C 
ATOM      3  C   UNL     1     -39.790  -1.921   3.572  0.00  0.00    +0.011 C 
ATOM      4  C   UNL     1     -39.719  -3.286   2.885  0.00  0.00    +0.023 C 
ATOM      5  C   UNL     1     -39.527  -4.367   3.949  0.00  0.00    +0.026 C 
ATOM      6  C   UNL     1     -40.741  -4.401   4.880  0.00  0.00    +0.051 C 
ATOM     35  C   UNL     1     -40.862  -3.017   5.546  0.00  0.00    +0.021 C 
BRANCH   6   7
ATOM      7  N   UNL     1     -40.584  -5.454   5.886  0.00  0.00    -0.327 NA
ATOM      8  H   UNL     1     -41.308  -5.447   6.595  0.00  0.00    +0.118 HD
ATOM      9  H   UNL     1     -39.666  -5.479   6.319  0.00  0.00    +0.118 HD
ENDBRANCH   6   7
ENDBRANCH  10   4
ENDBRANCH  16  15
TORSDOF 5
