REMARK  Name = F88
REMARK  8 active torsions:
REMARK  status: ('A' for Active; 'I' for Inactive)
REMARK    1  A    between atoms: C1_1  and  N_23
REMARK    2  A    between atoms: C3_3  and  C5_20
REMARK    3  A    between atoms: C7_4  and  N2_25
REMARK    4  A    between atoms: C10_7  and  O1_26
REMARK    5  A    between atoms: C13_10  and  O1_26
REMARK    6  A    between atoms: C16_13  and  O3_32
REMARK    7  A    between atoms: C6_19  and  C5_20
REMARK    8  A    between atoms: C17_30  and  O2_31
REMARK                            x       y       z     vdW  Elec       q    Type
REMARK                         _______ _______ _______ _____ _____    ______ ____
ROOT
ATOM     11  C   UNL     1      33.299 100.036   9.116  0.00  0.00    +0.074 A 
ATOM     12  C   UNL     1      32.840  99.045   9.986  0.00  0.00    +0.020 A 
ATOM     13  C   UNL     1      33.610  97.922  10.241  0.00  0.00    +0.039 A 
ATOM     14  C   UNL     1      34.846  97.783   9.621  0.00  0.00    +0.147 A 
ATOM     30  C   UNL     1      35.311  98.766   8.754  0.00  0.00    +0.039 A 
ATOM     31  C   UNL     1      34.540  99.889   8.505  0.00  0.00    +0.020 A 
ENDROOT
BRANCH  11  10
ATOM      8  C   UNL     1      31.874 101.963   9.742  0.00  0.00    +0.250 C 
ATOM      9  O   UNL     1      31.580 101.582  10.878  0.00  0.00    -0.273 OA
ATOM     10  N   UNL     1      32.545 101.202   8.841  0.00  0.00    -0.179 NA
BRANCH   8   7
ATOM      7  C   UNL     1      31.498 103.346   9.259  0.00  0.00    +0.117 C 
BRANCH   7   5
ATOM      3  N   UNL     1      29.437 105.029  11.787  0.00  0.00    -0.250 N 
ATOM      4  C   UNL     1      30.647 104.598  11.398  0.00  0.00    +0.093 A 
ATOM      5  C   UNL     1      30.475 103.997  10.150  0.00  0.00    +0.027 A 
ATOM      6  C   UNL     1      29.101 104.128   9.897  0.00  0.00    +0.118 A 
ATOM     32  N   UNL     1      28.466 104.752  10.878  0.00  0.00    -0.168 NA
BRANCH   3   1
ATOM      1  C   UNL     1      29.123 105.729  13.037  0.00  0.00    +0.128 C 
ATOM      2  C   UNL     1      28.777 104.773  14.150  0.00  0.00    +0.028 C 
ENDBRANCH   3   1
ENDBRANCH   7   5
ENDBRANCH   8   7
ENDBRANCH  11  10
BRANCH  14  15
ATOM     15  O   UNL     1      35.623  96.655   9.875  0.00  0.00    -0.436 OA
BRANCH  15  16
ATOM     16  C   UNL     1      36.795  96.767  10.577  0.00  0.00    +0.233 A 
ATOM     17  C   UNL     1      37.376  95.537  11.012  0.00  0.00    +0.074 A 
ATOM     18  C   UNL     1      38.590  95.691  11.730  0.00  0.00    +0.091 A 
ATOM     19  C   UNL     1      39.258  94.543  12.206  0.00  0.00    +0.059 A 
ATOM     20  C   UNL     1      38.742  93.295  11.984  0.00  0.00    +0.174 A 
ATOM     23  C   UNL     1      37.524  93.140  11.269  0.00  0.00    +0.173 A 
ATOM     26  N   UNL     1      39.153  96.919  11.984  0.00  0.00    -0.224 NA
ATOM     27  C   UNL     1      38.479  97.964  11.508  0.00  0.00    +0.202 A 
ATOM     28  C   UNL     1      36.860  94.236  10.790  0.00  0.00    +0.046 A 
ATOM     29  N   UNL     1      37.330  97.975  10.819  0.00  0.00    -0.189 NA
BRANCH  20  21
ATOM     21  O   UNL     1      39.312  92.126  12.402  0.00  0.00    -0.468 OA
ATOM     22  C   UNL     1      40.603  92.192  13.013  0.00  0.00    +0.253 C 
ENDBRANCH  20  21
BRANCH  23  24
ATOM     24  O   UNL     1      37.113  91.842  11.116  0.00  0.00    -0.468 OA
ATOM     25  C   UNL     1      35.864  91.602  10.457  0.00  0.00    +0.253 C 
ENDBRANCH  23  24
ENDBRANCH  15  16
ENDBRANCH  14  15
TORSDOF 8
