REMARK  Name = 2fgi_ligand
REMARK  18 active torsions:
REMARK  status: ('A' for Active; 'I' for Inactive)
REMARK    1  A    between atoms: C1_39  and  C2_40
REMARK    2  A    between atoms: C2_40  and  N1_67
REMARK    3  A    between atoms: C3_41  and  C4_42
REMARK    4  A    between atoms: C4_42  and  N1_67
REMARK    5  A    between atoms: C5_43  and  C6_44
REMARK    6  A    between atoms: C5_43  and  N1_67
REMARK    7  A    between atoms: C6_44  and  C7_45
REMARK    8  A    between atoms: C7_45  and  C8_46
REMARK    9  A    between atoms: C8_46  and  N2_68
REMARK   10  A    between atoms: C14_52  and  C16_54
REMARK   11  A    between atoms: C18_56  and  O1_74
REMARK   12  A    between atoms: C20_58  and  O2_75
REMARK   13  A    between atoms: C22_60  and  O1_74
REMARK   14  A    between atoms: C23_61  and  O2_75
REMARK   15  A    between atoms: C25_63  and  C26_64
REMARK   16  A    between atoms: C25_63  and  C27_65
REMARK   17  A    between atoms: C25_63  and  C28_66
REMARK   18  A    between atoms: C25_63  and  N7_73
REMARK                            x       y       z     vdW  Elec       q    Type
REMARK                         _______ _______ _______ _____ _____    ______ ____
ROOT
ATOM     10  N   UNL     1       7.751   2.959  24.182  0.00  0.00    -0.288 N 
ATOM     11  C   UNL     1       7.131   3.072  22.905  0.00  0.00    +0.184 A 
ATOM     12  N   UNL     1       7.429   4.145  22.180  0.00  0.00    -0.259 NA
ATOM     13  C   UNL     1       6.900   4.324  20.976  0.00  0.00    +0.086 A 
ATOM     14  C   UNL     1       6.024   3.318  20.486  0.00  0.00    +0.037 A 
ATOM     15  C   UNL     1       5.740   2.215  21.295  0.00  0.00    +0.129 A 
ATOM     16  C   UNL     1       5.477   3.467  19.198  0.00  0.00    +0.053 A 
ATOM     17  C   UNL     1       5.821   4.568  18.433  0.00  0.00    +0.037 A 
ATOM     18  C   UNL     1       6.683   5.499  18.979  0.00  0.00    +0.153 A 
ATOM     19  N   UNL     1       7.070   6.652  18.232  0.00  0.00    -0.194 N 
ATOM     20  H   UNL     1       6.623   6.727  17.341  0.00  0.00    +0.240 HD
ATOM     21  C   UNL     1       7.912   7.643  18.498  0.00  0.00    +0.299 C 
ATOM     22  O   UNL     1       8.225   8.449  17.621  0.00  0.00    -0.385 OA
ATOM     23  N   UNL     1       8.360   7.764  19.750  0.00  0.00    -0.261 N 
ATOM     24  H   UNL     1       8.069   7.073  20.412  0.00  0.00    +0.186 HD
ATOM     39  N   UNL     1       7.190   5.355  20.203  0.00  0.00    -0.274 NA
ATOM     40  N   UNL     1       6.323   2.094  22.542  0.00  0.00    -0.248 NA
ATOM     41  H   UNL     1       7.291   2.318  24.843  0.00  0.00    +0.188 HD
ENDROOT
BRANCH  17  29
ATOM     29  C   UNL     1       5.298   4.673  17.153  0.00  0.00    -0.032 A 
ATOM     30  C   UNL     1       5.827   3.879  16.133  0.00  0.00    +0.006 A 
ATOM     31  C   UNL     1       5.320   3.965  14.851  0.00  0.00    +0.081 A 
ATOM     32  C   UNL     1       4.288   4.807  14.541  0.00  0.00    +0.039 A 
ATOM     33  C   UNL     1       3.762   5.589  15.552  0.00  0.00    +0.081 A 
ATOM     38  C   UNL     1       4.247   5.534  16.856  0.00  0.00    +0.006 A 
BRANCH  33  34
ATOM     34  O   UNL     1       2.689   6.430  15.261  0.00  0.00    -0.324 OA
ATOM     35  C   UNL     1       1.762   6.211  14.160  0.00  0.00    +0.232 C 
ENDBRANCH  33  34
BRANCH  31  36
ATOM     36  O   UNL     1       5.857   3.151  13.858  0.00  0.00    -0.324 OA
ATOM     37  C   UNL     1       5.081   2.536  12.802  0.00  0.00    +0.232 C 
ENDBRANCH  31  36
ENDBRANCH  17  29
BRANCH  23  25
ATOM     25  C   UNL     1       9.237   8.821  20.228  0.00  0.00    +0.046 C 
ATOM     26  C   UNL     1      10.568   8.719  19.551  0.00  0.00    +0.036 C 
ATOM     27  C   UNL     1       8.628  10.193  19.949  0.00  0.00    +0.036 C 
ATOM     28  C   UNL     1       9.434   8.644  21.706  0.00  0.00    +0.036 C 
ENDBRANCH  23  25
BRANCH  10   9
ATOM      9  C   UNL     1       8.950   3.627  24.684  0.00  0.00    +0.137 C 
BRANCH   9   8
ATOM      8  C   UNL     1       9.454   2.991  25.973  0.00  0.00    +0.030 C 
BRANCH   8   7
ATOM      7  C   UNL     1      10.453   3.887  26.656  0.00  0.00    +0.053 C 
BRANCH   7   6
ATOM      6  C   UNL     1      10.888   3.313  27.990  0.00  0.00    +0.131 C 
BRANCH   6   3
ATOM      3  N   UNL     1      11.499   4.326  28.921  0.00  0.00    +0.235 N 
ATOM     42  H   UNL     1      10.945   4.153  29.745  0.00  0.00    +0.203 HD
BRANCH   3   2
ATOM      1  C   UNL     1       9.730   6.054  29.136  0.00  0.00    +0.060 C 
ATOM      2  C   UNL     1      11.162   5.779  28.691  0.00  0.00    +0.128 C 
ENDBRANCH   3   2
BRANCH   3   4
ATOM      4  C   UNL     1      12.867   4.016  29.465  0.00  0.00    +0.128 C 
ATOM      5  C   UNL     1      13.039   4.691  30.838  0.00  0.00    +0.060 C 
ENDBRANCH   3   4
ENDBRANCH   6   3
ENDBRANCH   7   6
ENDBRANCH   8   7
ENDBRANCH   9   8
ENDBRANCH  10   9
TORSDOF 11
