REMARK  Name = 3bz3_ligand
REMARK  9 active torsions:
REMARK  status: ('A' for Active; 'I' for Inactive)
REMARK    1  A    between atoms: C35_1  and  N30_16
REMARK    2  A    between atoms: C34_2  and  S31_14
REMARK    3  A    between atoms: C6_5  and  C8_9
REMARK    4  A    between atoms: C13_6  and  C12_19
REMARK    5  A    between atoms: C20_7  and  N30_16
REMARK    6  A    between atoms: S31_14  and  N30_16
REMARK    7  A    between atoms: C12_19  and  N10_20
REMARK    8  A    between atoms: N10_20  and  C5_21
REMARK    9  A    between atoms: N9_27  and  C11_28
REMARK                            x       y       z     vdW  Elec       q    Type
REMARK                         _______ _______ _______ _____ _____    ______ ____
ROOT
ATOM     16  C   UNL     1      11.657   4.438   6.796  0.00  0.00    +0.151 A 
ATOM     17  N   UNL     1      12.103   3.347   6.171  0.00  0.00    -0.209 NA
ATOM     18  C   UNL     1      13.389   3.032   6.178  0.00  0.00    +0.226 A 
ATOM     19  N   UNL     1      13.888   1.931   5.510  0.00  0.00    -0.236 N 
ATOM     20  H   UNL     1      14.854   1.635   5.711  0.00  0.00    +0.227 HD
ATOM     32  N   UNL     1      14.279   3.801   6.773  0.00  0.00    -0.228 NA
ATOM     33  C   UNL     1      13.914   4.904   7.401  0.00  0.00    +0.147 A 
ATOM     34  C   UNL     1      12.584   5.275   7.452  0.00  0.00    +0.097 A 
ENDROOT
BRANCH  19  21
ATOM     21  C   UNL     1      13.149   1.195   4.573  0.00  0.00    +0.056 A 
ATOM     22  C   UNL     1      13.849   0.627   3.514  0.00  0.00    +0.004 A 
ATOM     23  C   UNL     1      13.181  -0.089   2.551  0.00  0.00    -0.007 A 
ATOM     24  C   UNL     1      13.652  -0.814   1.311  0.00  0.00    +0.199 C 
ATOM     25  C   UNL     1      12.374  -1.354   0.705  0.00  0.00    +0.207 C 
ATOM     26  O   UNL     1      12.276  -2.002  -0.320  0.00  0.00    -0.390 OA
ATOM     27  N   UNL     1      11.359  -0.952   1.489  0.00  0.00    -0.239 N 
ATOM     28  H   UNL     1      10.397  -1.146   1.296  0.00  0.00    +0.223 HD
ATOM     29  C   UNL     1      11.798  -0.235   2.601  0.00  0.00    +0.065 A 
ATOM     30  C   UNL     1      11.089   0.332   3.664  0.00  0.00    -0.005 A 
ATOM     31  C   UNL     1      11.764   1.041   4.644  0.00  0.00    -0.005 A 
ENDBRANCH  19  21
BRANCH  34  35
ATOM     35  C   UNL     1      12.236   6.540   8.210  0.00  0.00    +0.361 C 
ATOM     36  F   UNL     1      13.397   7.062   8.778  0.00  0.00    -0.243 F 
ATOM     37  F   UNL     1      11.733   7.528   7.371  0.00  0.00    -0.243 F 
ATOM     38  F   UNL     1      11.312   6.282   9.218  0.00  0.00    -0.243 F 
ENDBRANCH  34  35
BRANCH  16  14
ATOM     14  N   UNL     1      10.295   4.668   6.803  0.00  0.00    -0.275 N 
ATOM     15  H   UNL     1       9.915   5.545   7.186  0.00  0.00    +0.200 HD
BRANCH  14  13
ATOM     13  C   UNL     1       9.397   3.644   6.257  0.00  0.00    +0.210 C 
BRANCH  13  12
ATOM      7  C   UNL     1       7.096   3.932   7.273  0.00  0.00    +0.141 A 
ATOM      8  N   UNL     1       5.843   4.386   7.203  0.00  0.00    -0.298 NA
ATOM      9  C   UNL     1       5.410   5.074   6.156  0.00  0.00    +0.053 A 
ATOM     10  C   UNL     1       6.244   5.339   5.087  0.00  0.00    -0.006 A 
ATOM     11  C   UNL     1       7.545   4.856   5.108  0.00  0.00    +0.007 A 
ATOM     12  C   UNL     1       7.982   4.155   6.218  0.00  0.00    +0.027 A 
BRANCH   7   2
ATOM      1  C   UNL     1       7.206   1.749   8.434  0.00  0.00    +0.204 C 
ATOM      2  N   UNL     1       7.476   3.192   8.395  0.00  0.00    -0.166 N 
BRANCH   2   3
ATOM      3  S   UNL     1       8.025   3.948   9.760  0.00  0.00    +0.061 S 
ATOM      4  O   UNL     1       8.622   2.885  10.482  0.00  0.00    -0.149 OA
ATOM      5  O   UNL     1       8.767   5.054   9.268  0.00  0.00    -0.149 OA
ATOM      6  C   UNL     1       6.477   4.494  10.538  0.00  0.00    +0.226 C 
ENDBRANCH   2   3
ENDBRANCH   7   2
ENDBRANCH  13  12
ENDBRANCH  14  13
ENDBRANCH  16  14
TORSDOF 7
