REMARK  Name = 1QK
REMARK  6 active torsions:
REMARK  status: ('A' for Active; 'I' for Inactive)
REMARK    1  A    between atoms: N12_2  and  C13_3
REMARK    2  A    between atoms: N12_2  and  C11_19
REMARK    3  A    between atoms: C13_3  and  C14_20
REMARK    4  A    between atoms: C26_8  and  C27_28
REMARK    5  A    between atoms: C28_9  and  C27_28
REMARK    6  A    between atoms: C02_11  and  C03_12
REMARK                            x       y       z     vdW  Elec       q    Type
REMARK                         _______ _______ _______ _____ _____    ______ ____
ROOT
ATOM      1  C   UNL     1      30.372 -23.018   3.420  0.00  0.00    +0.070 A 
ATOM      2  C   UNL     1      30.090 -21.631   3.082  0.00  0.00    +0.136 A 
ATOM      3  N   UNL     1      30.324 -20.536   3.994  0.00  0.00    -0.295 N 
ATOM      4  C   UNL     1      30.741 -20.822   5.375  0.00  0.00    +0.092 C 
ATOM      5  C   UNL     1      30.302 -19.830   6.439  0.00  0.00    +0.021 C 
ATOM      6  C   UNL     1      30.022 -18.451   5.992  0.00  0.00    +0.004 C 
ATOM      7  C   UNL     1      29.410 -18.391   4.664  0.00  0.00    +0.020 C 
ATOM      8  C   UNL     1      30.283 -19.100   3.682  0.00  0.00    +0.077 C 
ATOM     12  N   UNL     1      29.567 -21.300   1.804  0.00  0.00    -0.212 NA
ATOM     13  C   UNL     1      29.294 -22.365   0.817  0.00  0.00    +0.164 A 
ATOM     14  N   UNL     1      29.568 -23.674   1.113  0.00  0.00    -0.197 N 
ATOM     15  N   UNL     1      29.207 -24.464  -0.004  0.00  0.00    -0.161 NA
ATOM     16  C   UNL     1      28.735 -23.602  -0.989  0.00  0.00    +0.119 A 
ATOM     17  C   UNL     1      28.794 -22.301  -0.499  0.00  0.00    +0.035 A 
ATOM     20  C   UNL     1      30.111 -24.041   2.442  0.00  0.00    +0.154 A 
ENDROOT
BRANCH  17  18
ATOM     18  C   UNL     1      28.342 -21.019  -1.234  0.00  0.00    +0.031 C 
ATOM     19  C   UNL     1      26.913 -20.606  -0.918  0.00  0.00    +0.005 C 
ENDBRANCH  17  18
BRANCH   8   9
ATOM      9  C   UNL     1      31.648 -18.727   3.158  0.00  0.00    +0.055 C 
BRANCH   9  10
ATOM     10  C   UNL     1      32.018 -19.090   1.743  0.00  0.00    +0.184 C 
ATOM     11  O   UNL     1      30.939 -19.090   0.832  0.00  0.00    -0.220 OA
ENDBRANCH   9  10
ENDBRANCH   8   9
BRANCH  20  21
ATOM     21  N   UNL     1      30.387 -25.445   2.702  0.00  0.00    -0.215 NA
BRANCH  21  22
ATOM     22  C   UNL     1      30.855 -25.849   3.996  0.00  0.00    +0.146 C 
BRANCH  22  23
ATOM     23  C   UNL     1      29.727 -26.284   4.919  0.00  0.00    +0.071 C 
ATOM     24  C   UNL     1      30.019 -26.910   6.204  0.00  0.00    +0.299 C 
ATOM     25  N   UNL     1      28.924 -27.333   7.062  0.00  0.00    -0.152 NA
ATOM     26  O   UNL     1      29.184 -27.873   8.160  0.00  0.00    -0.619 OA
ATOM     27  C   UNL     1      27.532 -27.131   6.607  0.00  0.00    +0.302 C 
ATOM     28  C   UNL     1      27.237 -26.487   5.322  0.00  0.00    +0.077 C 
ATOM     29  C   UNL     1      28.342 -26.070   4.454  0.00  0.00    +0.010 C 
ENDBRANCH  22  23
ENDBRANCH  21  22
ENDBRANCH  20  21
TORSDOF 6
