REMARK  Name = 1xbb_ligand
REMARK  8 active torsions:
REMARK  status: ('A' for Active; 'I' for Inactive)
REMARK    1  A    between atoms: C5_3  and  C7_7
REMARK    2  A    between atoms: N13_13  and  C14_14
REMARK    3  A    between atoms: C19_15  and  C20_37
REMARK    4  A    between atoms: C16_18  and  N21_20
REMARK    5  A    between atoms: C22_21  and  C23_22
REMARK    6  A    between atoms: C27_25  and  C46_28
REMARK    7  A    between atoms: C46_28  and  N48_29
REMARK    8  A    between atoms: N51_32  and  C54_33
REMARK                            x       y       z     vdW  Elec       q    Type
REMARK                         _______ _______ _______ _____ _____    ______ ____
ROOT
ATOM     11  C   UNL     1       0.425  -1.090  14.415  0.00  0.00    +0.055 A 
ATOM     12  C   UNL     1       0.350  -0.045  13.470  0.00  0.00    +0.015 A 
ATOM     13  C   UNL     1      -0.863   0.181  12.791  0.00  0.00    +0.049 A 
ATOM     34  C   UNL     1      -1.957  -0.636  13.054  0.00  0.00    -0.019 A 
ATOM     35  C   UNL     1      -1.891  -1.672  13.985  0.00  0.00    -0.033 A 
ATOM     36  C   UNL     1      -0.689  -1.895  14.657  0.00  0.00    -0.036 A 
ATOM     37  C   UNL     1      -0.640  -3.027  15.660  0.00  0.00    +0.062 C 
ENDROOT
BRANCH  11   9
ATOM      6  C   UNL     1       4.356   0.777  14.295  0.00  0.00    +0.062 A 
ATOM      7  N   UNL     1       3.097   0.226  14.269  0.00  0.00    -0.246 NA
ATOM      8  C   UNL     1       2.786  -0.810  15.084  0.00  0.00    +0.209 A 
ATOM      9  N   UNL     1       1.551  -1.398  15.143  0.00  0.00    -0.248 N 
ATOM     10  H   UNL     1       1.452  -2.169  15.819  0.00  0.00    +0.216 HD
ATOM     38  N   UNL     1       3.715  -1.277  15.952  0.00  0.00    -0.252 NA
ATOM     39  C   UNL     1       5.000  -0.793  15.991  0.00  0.00    +0.104 A 
ATOM     40  C   UNL     1       5.354   0.266  15.158  0.00  0.00    +0.052 A 
BRANCH   6   5
ATOM      1  C   UNL     1       3.938   3.465  11.778  0.00  0.00    +0.042 A 
ATOM      2  C   UNL     1       5.220   4.013  11.820  0.00  0.00    +0.099 A 
ATOM      3  N   UNL     1       6.153   3.528  12.658  0.00  0.00    -0.292 NA
ATOM      4  C   UNL     1       5.870   2.492  13.470  0.00  0.00    +0.111 A 
ATOM      5  C   UNL     1       4.617   1.869  13.447  0.00  0.00    +0.032 A 
ATOM     41  C   UNL     1       3.629   2.370  12.601  0.00  0.00    +0.048 A 
ENDBRANCH   6   5
ENDBRANCH  11   9
BRANCH  13  14
ATOM     14  N   UNL     1      -1.113   1.152  11.859  0.00  0.00    -0.240 N 
ATOM     15  H   UNL     1      -2.059   1.192  11.538  0.00  0.00    +0.223 HD
ATOM     16  C   UNL     1      -0.299   2.052  11.312  0.00  0.00    +0.226 C 
ATOM     17  O   UNL     1       0.916   1.934  11.355  0.00  0.00    -0.377 OA
BRANCH  16  18
ATOM     18  C   UNL     1      -0.854   3.216  10.521  0.00  0.00    +0.049 A 
ATOM     19  C   UNL     1      -2.022   3.879  10.905  0.00  0.00    +0.017 A 
ATOM     20  C   UNL     1      -2.492   4.956  10.145  0.00  0.00    +0.008 A 
ATOM     21  C   UNL     1      -1.795   5.374   9.002  0.00  0.00    +0.006 A 
ATOM     32  C   UNL     1      -0.623   4.716   8.626  0.00  0.00    +0.008 A 
ATOM     33  C   UNL     1      -0.159   3.641   9.384  0.00  0.00    +0.017 A 
BRANCH  21  22
ATOM     22  C   UNL     1      -2.248   6.542   8.144  0.00  0.00    +0.203 C 
BRANCH  22  23
ATOM     23  N   UNL     1      -3.684   6.794   8.113  0.00  0.00    +0.255 N 
ATOM     24  H   UNL     1      -3.851   6.057   8.780  0.00  0.00    +0.205 HD
ATOM     25  C   UNL     1      -4.502   6.099   7.115  0.00  0.00    +0.185 C 
ATOM     26  C   UNL     1      -5.738   5.523   7.811  0.00  0.00    +0.183 C 
ATOM     27  N   UNL     1      -6.273   6.601   8.631  0.00  0.00    +0.240 N 
ATOM     28  H   UNL     1      -6.670   5.925   9.264  0.00  0.00    +0.203 HD
ATOM     29  C   UNL     1      -7.604   7.129   8.364  0.00  0.00    +0.191 C 
ATOM     30  C   UNL     1      -5.466   7.145   9.717  0.00  0.00    +0.183 C 
ATOM     31  C   UNL     1      -4.252   7.780   9.036  0.00  0.00    +0.185 C 
ENDBRANCH  22  23
ENDBRANCH  21  22
ENDBRANCH  16  18
ENDBRANCH  13  14
TORSDOF 6
