REMARK  Name = A8Q
REMARK  6 active torsions:
REMARK  status: ('A' for Active; 'I' for Inactive)
REMARK    1  A    between atoms: C1_1  and  C3_10
REMARK    2  A    between atoms: C8_3  and  C9_4
REMARK    3  A    between atoms: C12_7  and  C13_8
REMARK    4  A    between atoms: C1_19  and  C3_28
REMARK    5  A    between atoms: C8_21  and  C9_22
REMARK    6  A    between atoms: C12_25  and  C13_26
REMARK                            x       y       z     vdW  Elec       q    Type
REMARK                         _______ _______ _______ _____ _____    ______ ____
ROOT
ATOM      4  C   UNL     1       3.968 144.504 350.894  0.00  0.00    -0.022 A 
ATOM      5  C   UNL     1       4.383 143.220 350.493  0.00  0.00    -0.003 A 
ATOM     15  C   UNL     1       5.111 143.089 349.303  0.00  0.00    -0.000 A 
ATOM     16  C   UNL     1       5.431 144.203 348.545  0.00  0.00    -0.000 A 
ATOM     17  C   UNL     1       5.043 145.464 348.960  0.00  0.00    -0.000 A 
ATOM     18  C   UNL     1       4.306 145.614 350.121  0.00  0.00    -0.004 A 
ENDROOT
BRANCH   5   6
ATOM      6  C   UNL     1       4.192 142.001 351.340  0.00  0.00    +0.010 A 
ATOM      7  C   UNL     1       5.174 141.688 352.286  0.00  0.00    +0.001 A 
ATOM      8  C   UNL     1       5.072 140.542 353.052  0.00  0.00    -0.003 A 
ATOM      9  C   UNL     1       3.988 139.674 352.924  0.00  0.00    -0.002 A 
ATOM     12  C   UNL     1       2.999 139.975 351.993  0.00  0.00    +0.009 A 
ATOM     13  C   UNL     1       3.095 141.116 351.218  0.00  0.00    +0.057 A 
ATOM     14 CL   UNL     1       1.798 141.438 350.104  0.00  0.00    -0.082 Cl
BRANCH   9  10
ATOM     10  C   UNL     1       3.804 138.423 353.777  0.00  0.00    +0.136 C 
ATOM     11  N   UNL     1       4.991 137.570 353.860  0.00  0.00    -0.126 NA
ENDBRANCH   9  10
ENDBRANCH   5   6
BRANCH   4   1
ATOM      1  C   UNL     1       3.146 144.691 352.158  0.00  0.00    +0.022 C 
ATOM      2  C   UNL     1       3.754 145.735 353.098  0.00  0.00    +0.005 C 
ATOM      3  C   UNL     1       1.671 145.008 351.856  0.00  0.00    +0.005 C 
ENDBRANCH   4   1
TORSDOF 3
