REMARK  Name = 4f08_ligand
REMARK  1 active torsions:
REMARK  status: ('A' for Active; 'I' for Inactive)
REMARK    1  A    between atoms: N10_9  and  C11_10
REMARK                            x       y       z     vdW  Elec       q    Type
REMARK                         _______ _______ _______ _____ _____    ______ ____
ROOT
ATOM      1  C   UNL     1      10.389 -53.791 -23.271  0.00  0.00    +0.238 A 
ATOM      2  N   UNL     1      10.002 -53.123 -22.172  0.00  0.00    -0.231 N 
ATOM     11  C   UNL     1      10.521 -51.867 -22.265  0.00  0.00    +0.094 A 
ATOM     12  C   UNL     1      10.518 -50.697 -21.509  0.00  0.00    +0.022 A 
ATOM     13  C   UNL     1       9.944 -50.283 -20.242  0.00  0.00    -0.031 A 
ATOM     14  C   UNL     1      10.297 -49.014 -20.049  0.00  0.00    +0.113 A 
ATOM     15  N   UNL     1      11.055 -48.585 -21.083  0.00  0.00    -0.273 N 
ATOM     16  H   UNL     1      11.454 -47.650 -21.170  0.00  0.00    +0.229 HD
ATOM     17  C   UNL     1      11.205 -49.586 -21.989  0.00  0.00    +0.122 A 
ATOM     18  N   UNL     1      11.845 -49.635 -23.133  0.00  0.00    -0.302 NA
ATOM     19  C   UNL     1      11.872 -50.694 -23.873  0.00  0.00    +0.068 A 
ATOM     20  C   UNL     1      11.220 -51.842 -23.472  0.00  0.00    +0.046 A 
ATOM     21  N   UNL     1      11.098 -53.044 -24.035  0.00  0.00    -0.307 NA
ENDROOT
BRANCH   2   3
ATOM      3  C   UNL     1       9.196 -53.745 -21.137  0.00  0.00    +0.145 C 
ATOM      4  C   UNL     1       9.758 -53.704 -19.733  0.00  0.00    +0.087 C 
ATOM      5  C   UNL     1       9.091 -54.846 -18.987  0.00  0.00    +0.132 C 
ATOM      6  N   UNL     1       7.648 -54.627 -18.993  0.00  0.00    +0.227 N 
ATOM      7  H   UNL     1       7.469 -53.730 -18.542  0.00  0.00    +0.201 HD
ATOM      8  H   UNL     1       7.213 -55.412 -18.509  0.00  0.00    +0.201 HD
ATOM      9  C   UNL     1       7.083 -54.568 -20.338  0.00  0.00    +0.132 C 
ATOM     10  C   UNL     1       7.716 -53.435 -21.133  0.00  0.00    +0.087 C 
ENDBRANCH   2   3
TORSDOF 1
