REMARK  Name = 4QMY
REMARK  6 active torsions:
REMARK  status: ('A' for Active; 'I' for Inactive)
REMARK    1  A    between atoms: C_4  and  N_34
REMARK    2  A    between atoms: C_5  and  O_32
REMARK    3  A    between atoms: C_6  and  C_7
REMARK    4  A    between atoms: C_23  and  O_24
REMARK    5  A    between atoms: O_32  and  C_33
REMARK    6  A    between atoms: N_34  and  C_35
REMARK                            x       y       z     vdW  Elec       q    Type
REMARK                         _______ _______ _______ _____ _____    ______ ____
ROOT
ATOM      1  O   UNL     1      23.232  -2.565  75.035  0.00  0.00    -0.328 OA
ATOM      2  C   UNL     1      24.607  -2.315  74.966  0.00  0.00    +0.174 C 
ATOM      3  N   UNL     1      24.998  -0.852  74.734  0.00  0.00    -0.307 NA
ATOM      4  C   UNL     1      26.132  -0.046  75.246  0.00  0.00    +0.053 C 
ATOM      5  C   UNL     1      27.245  -0.283  76.135  0.00  0.00    +0.026 C 
ATOM      6  C   UNL     1      28.161   0.733  76.421  0.00  0.00    +0.002 C 
ATOM      7  C   UNL     1      28.023   2.014  75.851  0.00  0.00    +0.001 C 
ATOM      8  C   UNL     1      26.939   2.267  74.969  0.00  0.00    +0.010 C 
ATOM      9  C   UNL     1      26.019   1.246  74.680  0.00  0.00    +0.008 C 
ATOM     10  C   UNL     1      24.813   1.245  73.808  0.00  0.00    +0.019 C 
ATOM     11  C   UNL     1      24.168   2.274  72.961  0.00  0.00    +0.016 C 
ATOM     12  C   UNL     1      24.464   3.658  72.659  0.00  0.00    +0.124 C 
ATOM     13  N   UNL     1      23.523   4.122  71.787  0.00  0.00    -0.220 NA
ATOM     14  C   UNL     1      22.635   3.144  71.530  0.00  0.00    +0.221 C 
ATOM     17  C   UNL     1      23.020   1.951  72.256  0.00  0.00    +0.055 C 
ATOM     18  C   UNL     1      22.435   0.587  72.339  0.00  0.00    +0.022 C 
ATOM     19  C   UNL     1      21.213  -0.123  71.715  0.00  0.00    +0.009 C 
ATOM     20  C   UNL     1      20.193   0.298  70.823  0.00  0.00    +0.010 C 
ATOM     21  C   UNL     1      19.168  -0.622  70.434  0.00  0.00    +0.001 C 
ATOM     22  C   UNL     1      19.165  -1.963  70.927  0.00  0.00    +0.002 C 
ATOM     23  C   UNL     1      20.181  -2.394  71.821  0.00  0.00    +0.026 C 
ATOM     24  C   UNL     1      21.199  -1.479  72.217  0.00  0.00    +0.052 C 
ATOM     25  N   UNL     1      22.362  -1.588  73.084  0.00  0.00    -0.312 NA
ATOM     26  C   UNL     1      23.098  -0.393  73.182  0.00  0.00    +0.077 C 
ATOM     27  C   UNL     1      24.248  -0.086  73.898  0.00  0.00    +0.077 C 
ATOM     28  C   UNL     1      25.037  -2.847  76.326  0.00  0.00    +0.069 C 
ATOM     29  C   UNL     1      25.343  -3.162  73.851  0.00  0.00    +0.187 C 
ATOM     32  C   UNL     1      24.500  -4.361  73.564  0.00  0.00    +0.091 C 
ATOM     36  C   UNL     1      23.282  -3.903  72.860  0.00  0.00    +0.076 C 
ATOM     37  C   UNL     1      22.580  -2.852  73.751  0.00  0.00    +0.224 C 
ENDROOT
BRANCH  32  33
ATOM     33  N   UNL     1      25.231  -5.341  72.754  0.00  0.00    -0.314 NA
ATOM     34  H   UNL     1      26.206  -5.484  73.171  0.00  0.00    +0.122 HD
ATOM     35  C   UNL     1      24.530  -6.615  72.732  0.00  0.00    +0.101 C 
ENDBRANCH  32  33
BRANCH  14  15
ATOM     15  O   UNL     1      21.547   3.210  70.730  0.00  0.00    -0.492 OA
ATOM     16  H   UNL     1      21.635   2.502  69.959  0.00  0.00    +0.294 HD
ENDBRANCH  14  15
BRANCH  29  30
ATOM     30  O   UNL     1      25.494  -2.398  72.673  0.00  0.00    -0.374 OA
ATOM     31  C   UNL     1      26.766  -2.085  72.161  0.00  0.00    +0.194 C 
ENDBRANCH  29  30
TORSDOF 3
