REMARK  Name = 5IH9
REMARK  7 active torsions:
REMARK  status: ('A' for Active; 'I' for Inactive)
REMARK    1  A    between atoms: C_3  and  O_4
REMARK    2  A    between atoms: O_4  and  C_19
REMARK    3  A    between atoms: C_6  and  N_30
REMARK    4  A    between atoms: C_13  and  N_31
REMARK    5  A    between atoms: C_18  and  C_19
REMARK    6  A    between atoms: C_21  and  C_24
REMARK    7  A    between atoms: N_27  and  C_28
REMARK                            x       y       z     vdW  Elec       q    Type
REMARK                         _______ _______ _______ _____ _____    ______ ____
ROOT
ATOM      4  C   UNL     1      -4.968  -8.390   2.138  0.00  0.00    +0.024 A 
ATOM      5  C   UNL     1      -4.848  -7.155   1.435  0.00  0.00    +0.143 A 
ATOM      6  N   UNL     1      -4.168  -7.322   0.309  0.00  0.00    -0.174 NA
ATOM      7  N   UNL     1      -3.820  -8.632   0.268  0.00  0.00    -0.239 N 
ATOM     21  C   UNL     1      -4.345  -9.320   1.336  0.00  0.00    +0.123 A 
ENDROOT
BRANCH   4   3
ATOM      1  C   UNL     1      -6.962  -7.601   5.234  0.00  0.00    +0.111 A 
ATOM      2  C   UNL     1      -6.315  -7.458   4.007  0.00  0.00    +0.032 A 
ATOM      3  C   UNL     1      -5.661  -8.583   3.423  0.00  0.00    +0.030 A 
ATOM     22  C   UNL     1      -5.619  -9.801   4.166  0.00  0.00    +0.146 A 
ATOM     32  C   UNL     1      -6.318  -9.830   5.402  0.00  0.00    +0.157 A 
ATOM     33  N   UNL     1      -6.932  -8.750   5.934  0.00  0.00    -0.260 NA
BRANCH  22  23
ATOM     23  O   UNL     1      -4.926 -10.877   3.628  0.00  0.00    -0.490 OA
BRANCH  23  24
ATOM     24  C   UNL     1      -4.512 -11.981   4.449  0.00  0.00    +0.232 C 
BRANCH  24  25
ATOM     25  C   UNL     1      -3.419 -12.758   3.700  0.00  0.00    +0.029 C 
ATOM     26  C   UNL     1      -2.117 -11.940   3.499  0.00  0.00    +0.022 C 
ATOM     27  C   UNL     1      -1.013 -12.795   2.828  0.00  0.00    +0.081 C 
ATOM     28  N   UNL     1      -0.750 -14.014   3.612  0.00  0.00    -0.316 NA
ATOM     29  H   UNL     1      -0.031 -14.602   3.081  0.00  0.00    +0.122 HD
ATOM     30  C   UNL     1      -1.932 -14.857   3.866  0.00  0.00    +0.081 C 
ATOM     31  C   UNL     1      -3.111 -14.066   4.487  0.00  0.00    +0.022 C 
ENDBRANCH  24  25
ENDBRANCH  23  24
ENDBRANCH  22  23
ENDBRANCH   4   3
BRANCH   7   8
ATOM      8  C   UNL     1      -3.073  -9.159  -0.813  0.00  0.00    +0.066 A 
ATOM      9  C   UNL     1      -2.987  -8.459  -2.035  0.00  0.00    +0.029 A 
ATOM     10  C   UNL     1      -2.259  -9.032  -3.095  0.00  0.00    +0.025 A 
ATOM     11  C   UNL     1      -1.580 -10.278  -2.976  0.00  0.00    +0.030 A 
ATOM     19  C   UNL     1      -1.669 -10.980  -1.737  0.00  0.00    +0.025 A 
ATOM     20  C   UNL     1      -2.397 -10.401  -0.671  0.00  0.00    +0.029 A 
BRANCH  11  12
ATOM     12  N   UNL     1      -0.867 -10.767  -4.107  0.00  0.00    -0.327 N 
ATOM     13  C   UNL     1      -0.607  -9.810  -5.199  0.00  0.00    +0.120 C 
ATOM     14  C   UNL     1      -0.318 -10.513  -6.538  0.00  0.00    +0.103 C 
ATOM     15  N   UNL     1       0.724 -11.537  -6.385  0.00  0.00    -0.302 NA
ATOM     16  C   UNL     1       0.866 -12.214  -7.664  0.00  0.00    +0.105 C 
ATOM     17  C   UNL     1       0.355 -12.538  -5.363  0.00  0.00    +0.103 C 
ATOM     18  C   UNL     1       0.154 -11.825  -3.996  0.00  0.00    +0.120 C 
ENDBRANCH  11  12
ENDBRANCH   7   8
TORSDOF 6
