REMARK  Name = 2pe2_ligand
REMARK  7 active torsions:
REMARK  status: ('A' for Active; 'I' for Inactive)
REMARK    1  A    between atoms: N37_6  and  C36_7
REMARK    2  A    between atoms: C36_7  and  C35_8
REMARK    3  A    between atoms: C35_8  and  N33_9
REMARK    4  A    between atoms: C31_10  and  C29_12
REMARK    5  A    between atoms: C25_17  and  C23_18
REMARK    6  A    between atoms: C19_22  and  C18_23
REMARK    7  A    between atoms: C8_33  and  N11_34
REMARK                            x       y       z     vdW  Elec       q    Type
REMARK                         _______ _______ _______ _____ _____    ______ ____
ROOT
ATOM     14  C   UNL     1      -3.790  38.478  46.091  0.00  0.00    -0.017 A 
ATOM     15  C   UNL     1      -4.978  37.912  45.855  0.00  0.00    +0.143 A 
ATOM     16  N   UNL     1      -5.811  38.855  45.415  0.00  0.00    -0.275 N 
ATOM     17  H   UNL     1      -6.797  38.713  45.154  0.00  0.00    +0.236 HD
ATOM     18  C   UNL     1      -5.151  40.014  45.369  0.00  0.00    +0.066 A 
ATOM     38  C   UNL     1      -3.902  39.780  45.779  0.00  0.00    -0.010 A 
ENDROOT
BRANCH  18  19
ATOM     19  C   UNL     1      -5.522  41.320  44.986  0.00  0.00    +0.050 C 
ATOM     20  C   UNL     1      -6.817  41.708  44.545  0.00  0.00    +0.040 C 
ATOM     21  C   UNL     1      -7.963  40.925  44.406  0.00  0.00    +0.214 C 
ATOM     22  N   UNL     1      -8.968  41.681  43.945  0.00  0.00    -0.245 N 
ATOM     23  H   UNL     1      -9.898  41.363  43.761  0.00  0.00    +0.220 HD
ATOM     24  C   UNL     1      -8.521  42.941  43.769  0.00  0.00    +0.056 A 
ATOM     25  C   UNL     1      -9.140  44.089  43.247  0.00  0.00    -0.008 A 
ATOM     26  C   UNL     1      -8.399  45.278  43.075  0.00  0.00    -0.010 A 
ATOM     27  C   UNL     1      -7.029  45.332  43.431  0.00  0.00    +0.049 A 
ATOM     35  C   UNL     1      -6.421  44.184  43.978  0.00  0.00    -0.009 A 
ATOM     36  O   UNL     1      -8.064  39.722  44.665  0.00  0.00    -0.383 OA
ATOM     37  C   UNL     1      -7.158  42.991  44.141  0.00  0.00    -0.013 A 
BRANCH  27  28
ATOM     28  N   UNL     1      -6.253  46.436  43.234  0.00  0.00    -0.229 N 
ATOM     29  H   UNL     1      -5.298  46.364  43.520  0.00  0.00    +0.220 HD
ATOM     30  C   UNL     1      -6.634  47.623  42.692  0.00  0.00    +0.281 C 
ATOM     31  N   UNL     1      -5.687  48.553  42.620  0.00  0.00    -0.282 N 
ATOM     32  H   UNL     1      -4.765  48.355  42.953  0.00  0.00    +0.181 HD
ATOM     33  H   UNL     1      -5.896  49.451  42.232  0.00  0.00    +0.181 HD
ATOM     34  O   UNL     1      -7.761  47.837  42.228  0.00  0.00    -0.392 OA
ENDBRANCH  27  28
ENDBRANCH  18  19
BRANCH  14  13
ATOM      9  C   UNL     1      -1.260  35.819  46.921  0.00  0.00    +0.045 A 
ATOM     10  C   UNL     1      -0.383  36.558  47.732  0.00  0.00    +0.017 A 
ATOM     11  C   UNL     1      -0.618  37.919  47.973  0.00  0.00    +0.001 A 
ATOM     12  C   UNL     1      -1.736  38.553  47.406  0.00  0.00    +0.004 A 
ATOM     13  C   UNL     1      -2.634  37.832  46.593  0.00  0.00    -0.030 A 
ATOM     39  C   UNL     1      -2.391  36.454  46.350  0.00  0.00    +0.022 A 
BRANCH   9   8
ATOM      6  N   UNL     1      -1.592  33.769  45.629  0.00  0.00    -0.281 N 
ATOM      7  H   UNL     1      -2.178  34.347  45.062  0.00  0.00    +0.185 HD
ATOM      8  C   UNL     1      -0.978  34.316  46.683  0.00  0.00    +0.204 C 
ATOM     40  O   UNL     1      -0.219  33.693  47.430  0.00  0.00    -0.385 OA
BRANCH   6   5
ATOM      5  C   UNL     1      -1.439  32.345  45.269  0.00  0.00    +0.185 C 
BRANCH   5   4
ATOM      4  C   UNL     1      -1.052  32.180  43.781  0.00  0.00    +0.156 C 
BRANCH   4   2
ATOM      1  C   UNL     1       1.144  31.217  44.312  0.00  0.00    +0.131 C 
ATOM      2  N   UNL     1       0.419  32.254  43.525  0.00  0.00    +0.237 N 
ATOM      3  H   UNL     1       0.565  32.048  42.549  0.00  0.00    +0.203 HD
ATOM     41  C   UNL     1       0.962  33.615  43.769  0.00  0.00    +0.131 C 
ATOM     42  C   UNL     1       2.445  33.655  43.351  0.00  0.00    +0.051 C 
ATOM     43  C   UNL     1       3.245  32.593  44.117  0.00  0.00    +0.010 C 
ATOM     44  C   UNL     1       2.628  31.205  43.908  0.00  0.00    +0.051 C 
ENDBRANCH   4   2
ENDBRANCH   5   4
ENDBRANCH   6   5
ENDBRANCH   9   8
ENDBRANCH  14  13
TORSDOF 7
