REMARK  Name = 3VZC
REMARK  3 active torsions:
REMARK  status: ('A' for Active; 'I' for Inactive)
REMARK    1  A    between atoms: C_3  and  O_4
REMARK    2  A    between atoms: C_7  and  N_8
REMARK    3  A    between atoms: C_13  and  C_14
REMARK                            x       y       z     vdW  Elec       q    Type
REMARK                         _______ _______ _______ _____ _____    ______ ____
ROOT
ATOM      3  N   UNL     1       2.635 -33.124  -8.287  0.00  0.00    -0.223 NA
ATOM      4  C   UNL     1       2.060 -34.294  -7.961  0.00  0.00    +0.189 C 
ATOM      5  S   UNL     1       2.195 -35.764  -8.830  0.00  0.00    -0.080 S 
ATOM      6  C   UNL     1       1.189 -36.633  -7.782  0.00  0.00    +0.133 C 
ATOM      7  C   UNL     1       0.799 -35.793  -6.790  0.00  0.00    +0.061 C 
ATOM     15  N   UNL     1       1.273 -34.522  -6.911  0.00  0.00    -0.226 NA
ENDROOT
BRANCH   7   8
ATOM      8  C   UNL     1      -0.038 -36.161  -5.731  0.00  0.00    -0.003 A 
ATOM      9  C   UNL     1      -0.639 -37.416  -5.668  0.00  0.00    +0.011 A 
ATOM     10  C   UNL     1      -1.475 -37.726  -4.595  0.00  0.00    +0.020 A 
ATOM     11  C   UNL     1      -1.713 -36.786  -3.587  0.00  0.00    +0.041 A 
ATOM     12 CL   UNL     1      -2.750 -37.159  -2.246  0.00  0.00    -0.084 Cl
ATOM     13  C   UNL     1      -1.124 -35.531  -3.651  0.00  0.00    +0.020 A 
ATOM     14  C   UNL     1      -0.284 -35.230  -4.716  0.00  0.00    +0.011 A 
ENDBRANCH   7   8
BRANCH   3   2
ATOM      1  C   UNL     1       1.415 -31.546  -6.875  0.00  0.00    +0.031 A 
ATOM      2  C   UNL     1       2.536 -31.953  -7.616  0.00  0.00    +0.067 A 
ATOM     16  C   UNL     1       3.632 -31.101  -7.682  0.00  0.00    +0.031 A 
ATOM     17  C   UNL     1       3.636 -29.873  -7.030  0.00  0.00    +0.047 A 
ATOM     18  C   UNL     1       2.525 -29.484  -6.299  0.00  0.00    +0.117 A 
ATOM     21  C   UNL     1       1.411 -30.318  -6.207  0.00  0.00    +0.047 A 
BRANCH  18  19
ATOM     19  O   UNL     1       2.571 -28.287  -5.666  0.00  0.00    -0.507 OA
ATOM     20  H   UNL     1       1.789 -27.677  -6.012  0.00  0.00    +0.292 HD
ENDBRANCH  18  19
ENDBRANCH   3   2
TORSDOF 3
