REMARK  Name = G7W
REMARK  7 active torsions:
REMARK  status: ('A' for Active; 'I' for Inactive)
REMARK    1  A    between atoms: C15_2  and  C14_18
REMARK    2  A    between atoms: C05_10  and  C06_11
REMARK    3  A    between atoms: C06_11  and  C07_12
REMARK    4  A    between atoms: C08_13  and  C09_14
REMARK    5  A    between atoms: N10_15  and  C11_16
REMARK    6  A    between atoms: N17_20  and  C18_21
REMARK    7  A    between atoms: C33_33  and  C34_34
REMARK                            x       y       z     vdW  Elec       q    Type
REMARK                         _______ _______ _______ _____ _____    ______ ____
ROOT
ATOM      1  C   UNL     1     -28.421  -8.520  -6.320  0.00  0.00    +0.003 A 
ATOM      2  C   UNL     1     -27.150  -8.607  -5.786  0.00  0.00    +0.017 A 
ATOM      3  C   UNL     1     -26.083  -9.040  -6.555  0.00  0.00    +0.074 A 
ATOM     22  C   UNL     1     -26.313  -9.378  -7.874  0.00  0.00    +0.017 A 
ATOM     23  C   UNL     1     -27.603  -9.291  -8.418  0.00  0.00    +0.003 A 
ATOM     24  C   UNL     1     -28.653  -8.861  -7.654  0.00  0.00    +0.020 A 
ENDROOT
BRANCH  24  25
ATOM     25  C   UNL     1     -30.048  -8.768  -8.245  0.00  0.00    +0.107 A 
ATOM     26  N   UNL     1     -31.148  -9.408  -7.769  0.00  0.00    -0.168 NA
ATOM     27  N   UNL     1     -32.203  -9.089  -8.551  0.00  0.00    -0.236 N 
ATOM     31  C   UNL     1     -31.856  -8.245  -9.545  0.00  0.00    +0.165 A 
ATOM     32  N   UNL     1     -32.563  -7.649 -10.573  0.00  0.00    -0.205 NA
ATOM     33  C   UNL     1     -31.960  -6.847 -11.436  0.00  0.00    +0.202 A 
ATOM     34  N   UNL     1     -30.648  -6.570 -11.343  0.00  0.00    -0.205 NA
ATOM     35  C   UNL     1     -29.882  -7.106 -10.366  0.00  0.00    +0.176 A 
ATOM     36  N   UNL     1     -28.497  -6.765 -10.317  0.00  0.00    -0.107 NA
ATOM     37  C   UNL     1     -30.461  -7.982  -9.406  0.00  0.00    +0.090 A 
BRANCH  27  28
ATOM     28  C   UNL     1     -33.561  -9.587  -8.378  0.00  0.00    +0.107 C 
ATOM     29  C   UNL     1     -33.709 -10.277  -7.023  0.00  0.00    +0.026 C 
ATOM     30  C   UNL     1     -33.893 -10.489  -9.555  0.00  0.00    +0.026 C 
ENDBRANCH  27  28
ENDBRANCH  24  25
BRANCH   3   4
ATOM      4  N   UNL     1     -24.754  -9.123  -6.012  0.00  0.00    -0.175 NA
ATOM      5  C   UNL     1     -24.484  -9.543  -4.658  0.00  0.00    +0.269 C 
ATOM      6  O   UNL     1     -25.366  -9.861  -3.902  0.00  0.00    -0.268 OA
BRANCH   5   7
ATOM      7  C   UNL     1     -23.019  -9.601  -4.165  0.00  0.00    +0.063 C 
ATOM      8  C   UNL     1     -22.736  -9.969  -2.879  0.00  0.00    +0.047 C 
BRANCH   8   9
ATOM      9  C   UNL     1     -21.251 -10.201  -2.486  0.00  0.00    +0.196 C 
ATOM     21  O   UNL     1     -20.367  -9.923  -3.293  0.00  0.00    -0.287 OA
BRANCH   9  10
ATOM     10  C   UNL     1     -20.854 -10.750  -1.124  0.00  0.00    +0.039 A 
ATOM     11  C   UNL     1     -21.805 -11.341  -0.278  0.00  0.00    +0.009 A 
ATOM     12  C   UNL     1     -21.398 -11.829   0.950  0.00  0.00    +0.099 A 
ATOM     17  C   UNL     1     -20.041 -11.725   1.368  0.00  0.00    +0.144 A 
ATOM     18  F   UNL     1     -19.662 -12.199   2.568  0.00  0.00    -0.204 F 
ATOM     19  C   UNL     1     -19.103 -11.139   0.533  0.00  0.00    +0.030 A 
ATOM     20  C   UNL     1     -19.504 -10.652  -0.712  0.00  0.00    +0.005 A 
BRANCH  12  13
ATOM     13  C   UNL     1     -22.415 -12.463   1.884  0.00  0.00    +0.421 C 
ATOM     14  F   UNL     1     -22.778 -11.506   2.730  0.00  0.00    -0.166 F 
ATOM     15  F   UNL     1     -21.863 -13.473   2.550  0.00  0.00    -0.166 F 
ATOM     16  F   UNL     1     -23.487 -12.896   1.175  0.00  0.00    -0.166 F 
ENDBRANCH  12  13
ENDBRANCH   9  10
ENDBRANCH   8   9
ENDBRANCH   5   7
ENDBRANCH   3   4
TORSDOF 7
