REMARK  Name = 2J5F
REMARK  4 active torsions:
REMARK  status: ('A' for Active; 'I' for Inactive)
REMARK    1  A    between atoms: C_1  and  C_2
REMARK    2  A    between atoms: C_2  and  C_3
REMARK    3  A    between atoms: N_5  and  C_6
REMARK    4  A    between atoms: N_16  and  C_17
REMARK                            x       y       z     vdW  Elec       q    Type
REMARK                         _______ _______ _______ _____ _____    ______ ____
ROOT
ATOM      6  C   UNL     1     -52.138  -1.310 -20.572  0.00  0.00    +0.034 A 
ATOM      7  C   UNL     1     -52.817  -0.428 -19.755  0.00  0.00    +0.025 A 
ATOM      8  C   UNL     1     -53.686   0.491 -20.307  0.00  0.00    +0.030 A 
ATOM      9  C   UNL     1     -53.874   0.526 -21.674  0.00  0.00    +0.076 A 
ATOM     10  N   UNL     1     -54.710   1.407 -22.209  0.00  0.00    -0.235 NA
ATOM     11  C   UNL     1     -54.902   1.449 -23.508  0.00  0.00    +0.224 A 
ATOM     12  N   UNL     1     -54.283   0.626 -24.325  0.00  0.00    -0.220 NA
ATOM     13  C   UNL     1     -53.434  -0.286 -23.862  0.00  0.00    +0.134 A 
ATOM     14  N   UNL     1     -52.827  -1.098 -24.718  0.00  0.00    -0.299 N 
ATOM     15  H   UNL     1     -52.325  -1.973 -24.361  0.00  0.00    +0.154 HD
ATOM     23  C   UNL     1     -53.209  -0.353 -22.497  0.00  0.00    +0.042 A 
ATOM     24  C   UNL     1     -52.338  -1.279 -21.945  0.00  0.00    +0.036 A 
ENDROOT
BRANCH  14  16
ATOM     16  C   UNL     1     -52.843  -0.825 -26.019  0.00  0.00    +0.033 A 
ATOM     17  C   UNL     1     -52.850  -1.856 -26.935  0.00  0.00    +0.023 A 
ATOM     18  C   UNL     1     -52.867  -1.566 -28.287  0.00  0.00    +0.003 A 
ATOM     19  C   UNL     1     -52.876  -0.252 -28.733  0.00  0.00    +0.015 A 
ATOM     20  C   UNL     1     -52.868   0.781 -27.827  0.00  0.00    +0.020 A 
ATOM     21 BR   UNL     1     -52.892   2.580 -28.431  0.00  0.00    -0.050 Br
ATOM     22  C   UNL     1     -52.851   0.490 -26.471  0.00  0.00    +0.038 A 
ENDBRANCH  14  16
BRANCH   6   4
ATOM      3  C   UNL     1     -51.165  -3.372 -20.651  0.00  0.00    +0.217 C 
ATOM      4  N   UNL     1     -51.315  -2.203 -20.037  0.00  0.00    -0.285 N 
ATOM      5  H   UNL     1     -50.785  -1.987 -19.133  0.00  0.00    +0.155 HD
ATOM     25  O   UNL     1     -51.721  -3.659 -21.706  0.00  0.00    -0.276 OA
BRANCH   3   2
ATOM      1  C   UNL     1     -51.028  -5.204 -18.956  0.00  0.00    +0.013 C 
ATOM      2  C   UNL     1     -50.244  -4.372 -19.969  0.00  0.00    +0.093 C 
ENDBRANCH   3   2
ENDBRANCH   6   4
TORSDOF 3
