REMARK  Name = 5CU4
REMARK  11 active torsions:
REMARK  status: ('A' for Active; 'I' for Inactive)
REMARK    1  A    between atoms: C_1  and  N_16
REMARK    2  A    between atoms: C_1  and  C_17
REMARK    3  A    between atoms: C_2  and  C_3
REMARK    4  A    between atoms: C_2  and  N_16
REMARK    5  A    between atoms: C_5  and  C_8
REMARK    6  A    between atoms: C_17  and  C_18
REMARK    7  A    between atoms: N_20  and  C_21
REMARK    8  A    between atoms: C_21  and  C_22
REMARK    9  A    between atoms: C_22  and  C_23
REMARK   10  A    between atoms: N_25  and  C_26
REMARK   11  A    between atoms: C_31  and  C_32
REMARK                            x       y       z     vdW  Elec       q    Type
REMARK                         _______ _______ _______ _____ _____    ______ ____
ROOT
ATOM      3  C   UNL     1    -145.572-173.023 360.831  0.00  0.00    +0.214 C 
ATOM      4  N   UNL     1    -146.673-172.943 361.571  0.00  0.00    -0.315 N 
ATOM      5  H   UNL     1    -146.604-173.171 362.614  0.00  0.00    +0.149 HD
ATOM     21  O   UNL     1    -145.588-172.959 359.609  0.00  0.00    -0.276 OA
ENDROOT
BRANCH   3   2
ATOM      2  C   UNL     1    -144.281-173.212 361.589  0.00  0.00    +0.111 C 
BRANCH   2   1
ATOM      1  C   UNL     1    -143.272-172.127 361.279  0.00  0.00    +0.090 C 
BRANCH   1  22
ATOM     22  N   UNL     1    -141.997-172.345 361.966  0.00  0.00    -0.312 NA
ATOM     23  H   UNL     1    -141.508-173.188 361.524  0.00  0.00    +0.122 HD
BRANCH  22  24
ATOM     24  C   UNL     1    -141.109-171.186 361.875  0.00  0.00    +0.116 C 
BRANCH  24  25
ATOM     25  C   UNL     1    -139.719-171.459 362.395  0.00  0.00    -0.032 A 
ATOM     26  C   UNL     1    -138.699-170.543 362.181  0.00  0.00    +0.025 A 
ATOM     27  C   UNL     1    -137.430-170.787 362.665  0.00  0.00    +0.049 A 
ATOM     28 CL   UNL     1    -136.207-169.588 362.377  0.00  0.00    -0.083 Cl
ATOM     29  C   UNL     1    -137.125-171.947 363.366  0.00  0.00    +0.001 A 
ATOM     30  C   UNL     1    -138.157-172.862 363.579  0.00  0.00    +0.010 A 
ATOM     37  C   UNL     1    -139.429-172.617 363.097  0.00  0.00    +0.005 A 
BRANCH  29  31
ATOM     31  C   UNL     1    -135.761-172.266 363.872  0.00  0.00    -0.017 A 
ATOM     32  C   UNL     1    -135.494-172.308 365.239  0.00  0.00    +0.008 A 
ATOM     33  C   UNL     1    -134.230-172.623 365.703  0.00  0.00    +0.001 A 
ATOM     34  C   UNL     1    -133.212-172.899 364.821  0.00  0.00    +0.000 A 
ATOM     35  C   UNL     1    -133.455-172.855 363.466  0.00  0.00    +0.001 A 
ATOM     36  C   UNL     1    -134.716-172.543 362.991  0.00  0.00    +0.008 A 
ENDBRANCH  29  31
ENDBRANCH  24  25
ENDBRANCH  22  24
ENDBRANCH   1  22
ENDBRANCH   2   1
ENDBRANCH   3   2
BRANCH   4   6
ATOM      6  C   UNL     1    -147.969-172.559 361.028  0.00  0.00    +0.113 C 
BRANCH   6   7
ATOM      7  C   UNL     1    -148.815-173.763 360.667  0.00  0.00    +0.115 C 
BRANCH   7   8
ATOM      8  C   UNL     1    -149.203-174.584 361.875  0.00  0.00    +0.219 C 
ATOM      9  N   UNL     1    -149.499-175.872 361.593  0.00  0.00    -0.285 N 
ATOM     10  H   UNL     1    -149.389-176.160 360.568  0.00  0.00    +0.155 HD
ATOM     20  O   UNL     1    -149.205-174.112 363.003  0.00  0.00    -0.275 OA
BRANCH   9  11
ATOM     11  C   UNL     1    -149.936-176.893 362.474  0.00  0.00    +0.034 A 
ATOM     12  C   UNL     1    -149.900-178.189 361.978  0.00  0.00    +0.033 A 
ATOM     13  C   UNL     1    -150.111-179.275 362.819  0.00  0.00    -0.001 A 
ATOM     17  C   UNL     1    -150.403-179.047 364.157  0.00  0.00    +0.010 A 
ATOM     18  C   UNL     1    -150.477-177.755 364.645  0.00  0.00    +0.002 A 
ATOM     19  C   UNL     1    -150.243-176.677 363.810  0.00  0.00    +0.023 A 
BRANCH  13  14
ATOM     14  C   UNL     1    -149.867-180.651 362.313  0.00  0.00    +0.072 C 
ATOM     15  O   UNL     1    -149.823-181.577 363.222  0.00  0.00    -0.545 OA
ATOM     16  O   UNL     1    -149.778-180.877 361.119  0.00  0.00    -0.545 OA
ENDBRANCH  13  14
ENDBRANCH   9  11
ENDBRANCH   7   8
ENDBRANCH   6   7
ENDBRANCH   4   6
TORSDOF 11
