REMARK  Name = 4gw8_ligand
REMARK  3 active torsions:
REMARK  status: ('A' for Active; 'I' for Inactive)
REMARK    1  A    between atoms: CAF_6  and  NAG_7
REMARK    2  A    between atoms: CAJ_10  and  CAN_14
REMARK    3  A    between atoms: CAN_14  and  CAO_15
REMARK                            x       y       z     vdW  Elec       q    Type
REMARK                         _______ _______ _______ _____ _____    ______ ____
ROOT
ATOM      3  N   UNL     1     -17.614  35.171  -0.278  0.00  0.00    -0.234 N 
ATOM      4  H   UNL     1     -16.880  34.483  -0.060  0.00  0.00    +0.227 HD
ATOM      5  C   UNL     1     -18.084  35.888   0.741  0.00  0.00    +0.190 C 
ATOM      6  N   UNL     1     -17.583  35.733   1.957  0.00  0.00    -0.265 NA
ATOM      7  C   UNL     1     -18.228  36.596   2.757  0.00  0.00    +0.246 C 
ATOM      8  O   UNL     1     -18.003  36.746   3.969  0.00  0.00    -0.309 OA
ATOM      9  C   UNL     1     -19.168  37.295   2.007  0.00  0.00    +0.132 C 
ATOM     20  N   UNL     1     -19.061  36.819   0.755  0.00  0.00    -0.222 NA
ENDROOT
BRANCH   3   2
ATOM      1  C   UNL     1     -17.024  35.083  -2.539  0.00  0.00    +0.019 A 
ATOM      2  C   UNL     1     -18.000  35.255  -1.557  0.00  0.00    +0.072 A 
ATOM     21  C   UNL     1     -19.341  35.441  -1.937  0.00  0.00    +0.019 A 
ATOM     22  C   UNL     1     -19.689  35.481  -3.289  0.00  0.00    -0.011 A 
ATOM     23  C   UNL     1     -18.697  35.325  -4.260  0.00  0.00    -0.020 A 
ATOM     24  C   UNL     1     -17.369  35.135  -3.873  0.00  0.00    -0.011 A 
ENDBRANCH   3   2
BRANCH   9  10
ATOM     10  C   UNL     1     -19.985  38.261   2.614  0.00  0.00    +0.195 C 
BRANCH  10  11
ATOM     11  C   UNL     1     -20.745  39.099   1.812  0.00  0.00    -0.039 A 
ATOM     12  C   UNL     1     -21.200  40.296   2.335  0.00  0.00    -0.031 A 
ATOM     13  C   UNL     1     -21.958  41.144   1.527  0.00  0.00    +0.003 A 
ATOM     14  C   UNL     1     -22.257  40.796   0.212  0.00  0.00    +0.117 A 
ATOM     15  O   UNL     1     -22.986  41.449  -0.740  0.00  0.00    -0.295 OA
ATOM     16  C   UNL     1     -22.789  40.714  -1.967  0.00  0.00    +0.380 C 
ATOM     17  O   UNL     1     -22.225  39.465  -1.606  0.00  0.00    -0.292 OA
ATOM     18  C   UNL     1     -21.793  39.595  -0.314  0.00  0.00    +0.118 A 
ATOM     19  C   UNL     1     -21.062  38.743   0.484  0.00  0.00    +0.011 A 
ENDBRANCH  10  11
ENDBRANCH   9  10
TORSDOF 3
