REMARK  Name = 2C0T
REMARK  8 active torsions:
REMARK  status: ('A' for Active; 'I' for Inactive)
REMARK    1  A    between atoms: C_1  and  C_3
REMARK    2  A    between atoms: N_9  and  C_40
REMARK    3  A    between atoms: C_13  and  O_17
REMARK    4  A    between atoms: C_16  and  N_20
REMARK    5  A    between atoms: O_17  and  C_21
REMARK    6  A    between atoms: C_24  and  C_26
REMARK    7  A    between atoms: C_25  and  N_28
REMARK    8  A    between atoms: N_29  and  C_34
REMARK                            x       y       z     vdW  Elec       q    Type
REMARK                         _______ _______ _______ _____ _____    ______ ____
ROOT
ATOM      1  C   UNL     1       3.269  63.083  12.833  0.00  0.00    +0.105 A 
ATOM      2  N   UNL     1       3.604  61.773  12.671  0.00  0.00    -0.168 NA
ATOM      3  N   UNL     1       4.833  61.745  11.935  0.00  0.00    -0.242 N 
ATOM     16  C   UNL     1       5.264  62.970  11.734  0.00  0.00    +0.164 A 
ATOM     17  N   UNL     1       6.377  63.382  11.094  0.00  0.00    -0.216 NA
ATOM     18  C   UNL     1       6.579  64.702  11.009  0.00  0.00    +0.225 A 
ATOM     19  N   UNL     1       5.698  65.581  11.528  0.00  0.00    -0.220 NA
ATOM     20  C   UNL     1       4.560  65.193  12.132  0.00  0.00    +0.131 A 
ATOM     21  N   UNL     1       3.748  66.173  12.639  0.00  0.00    -0.343 N 
ATOM     22  H   UNL     1       4.009  67.203  12.512  0.00  0.00    +0.144 HD
ATOM     23  H   UNL     1       2.853  65.909  13.162  0.00  0.00    +0.144 HD
ATOM     46  C   UNL     1       4.297  63.845  12.251  0.00  0.00    +0.086 A 
ENDROOT
BRANCH   3   4
ATOM      4  C   UNL     1       5.429  60.452  11.610  0.00  0.00    +0.112 C 
ATOM      5  C   UNL     1       5.834  59.789  12.926  0.00  0.00    +0.042 C 
ATOM      6  C   UNL     1       6.221  58.305  12.719  0.00  0.00    +0.086 C 
ATOM      7  N   UNL     1       5.314  57.633  11.763  0.00  0.00    -0.299 NA
ATOM      8  C   UNL     1       4.975  58.262  10.492  0.00  0.00    +0.086 C 
ATOM     15  C   UNL     1       4.432  59.639  10.798  0.00  0.00    +0.042 C 
BRANCH   7   9
ATOM      9  C   UNL     1       5.803  56.250  11.650  0.00  0.00    +0.061 C 
ATOM     10  C   UNL     1       4.762  55.132  11.456  0.00  0.00    +0.047 C 
ATOM     11  C   UNL     1       5.466  53.748  11.494  0.00  0.00    +0.161 C 
ATOM     12  O   UNL     1       6.498  53.756  10.487  0.00  0.00    -0.380 OA
ATOM     13  C   UNL     1       7.554  54.683  10.794  0.00  0.00    +0.161 C 
ATOM     14  C   UNL     1       7.013  56.128  10.726  0.00  0.00    +0.047 C 
ENDBRANCH   7   9
ENDBRANCH   3   4
BRANCH   1  24
ATOM     24  C   UNL     1       2.014  63.511  13.535  0.00  0.00    +0.006 A 
ATOM     25  C   UNL     1       1.689  63.068  14.851  0.00  0.00    +0.012 A 
ATOM     26  C   UNL     1       0.475  63.499  15.448  0.00  0.00    +0.027 A 
ATOM     27  C   UNL     1      -0.374  64.368  14.711  0.00  0.00    +0.076 A 
ATOM     42  C   UNL     1      -0.063  64.735  13.411  0.00  0.00    +0.142 A 
ATOM     45  C   UNL     1       1.151  64.345  12.830  0.00  0.00    +0.057 A 
BRANCH  27  28
ATOM     28  N   UNL     1      -1.612  64.765  15.240  0.00  0.00    -0.277 N 
ATOM     29  H   UNL     1      -2.470  64.705  14.603  0.00  0.00    +0.155 HD
ATOM     30  C   UNL     1      -1.788  65.209  16.476  0.00  0.00    +0.265 C 
ATOM     31  O   UNL     1      -0.861  65.403  17.261  0.00  0.00    -0.268 OA
BRANCH  30  32
ATOM     32  C   UNL     1      -3.196  65.489  16.879  0.00  0.00    +0.106 A 
ATOM     33  C   UNL     1      -4.304  64.831  16.344  0.00  0.00    +0.041 A 
ATOM     34  C   UNL     1      -5.381  65.432  17.059  0.00  0.00    +0.001 A 
ATOM     35  C   UNL     1      -6.753  65.171  16.949  0.00  0.00    +0.010 A 
ATOM     36  C   UNL     1      -7.647  65.882  17.762  0.00  0.00    +0.001 A 
ATOM     37  C   UNL     1      -7.175  66.844  18.668  0.00  0.00    +0.002 A 
ATOM     38  C   UNL     1      -5.809  67.088  18.774  0.00  0.00    +0.026 A 
ATOM     39  C   UNL     1      -4.922  66.365  17.962  0.00  0.00    +0.049 A 
ATOM     40  N   UNL     1      -3.584  66.383  17.810  0.00  0.00    -0.339 N 
ATOM     41  C   UNL     1      -2.665  67.247  18.617  0.00  0.00    +0.149 C 
ENDBRANCH  30  32
ENDBRANCH  27  28
BRANCH  42  43
ATOM     43  O   UNL     1      -0.919  65.582  12.755  0.00  0.00    -0.493 OA
ATOM     44  C   UNL     1      -0.640  66.047  11.434  0.00  0.00    +0.277 C 
ENDBRANCH  42  43
ENDBRANCH   1  24
TORSDOF 6
