REMARK  Name = 4i6b_ligand
REMARK  4 active torsions:
REMARK  status: ('A' for Active; 'I' for Inactive)
REMARK    1  A    between atoms: N7_3  and  C19_4
REMARK    2  A    between atoms: C9_6  and  C16_7
REMARK    3  A    between atoms: C16_7  and  C17_8
REMARK    4  A    between atoms: N10_9  and  C11_10
REMARK                            x       y       z     vdW  Elec       q    Type
REMARK                         _______ _______ _______ _____ _____    ______ ____
ROOT
ATOM      1  O   UNL     1      13.745   4.330  10.278  0.00  0.00    -0.382 OA
ATOM      2  C   UNL     1      12.600   4.834  10.316  0.00  0.00    +0.232 C 
ATOM      3  C   UNL     1      12.529   6.292  10.539  0.00  0.00    +0.217 C 
ATOM      4  N   UNL     1      11.184   6.878  10.628  0.00  0.00    -0.266 N 
ATOM      5  C   UNL     1      10.041   6.085  10.389  0.00  0.00    +0.160 A 
ATOM      6  N   UNL     1       8.799   6.624  10.406  0.00  0.00    -0.267 NA
ATOM      7  C   UNL     1       7.725   5.857  10.160  0.00  0.00    +0.148 A 
ATOM      8  N   UNL     1       7.819   4.542   9.890  0.00  0.00    -0.301 NA
ATOM      9  C   UNL     1       9.000   3.910   9.854  0.00  0.00    +0.107 A 
ATOM     10  C   UNL     1      10.171   4.634  10.086  0.00  0.00    +0.141 A 
ATOM     18  N   UNL     1      11.455   4.035  10.073  0.00  0.00    -0.214 N 
ATOM     19  C   UNL     1      11.620   2.601   9.782  0.00  0.00    +0.210 C 
ENDROOT
BRANCH   4  11
ATOM     11  C   UNL     1      11.003   8.319  10.963  0.00  0.00    +0.100 C 
ATOM     12  C   UNL     1      12.113   8.876  11.859  0.00  0.00    +0.028 C 
ATOM     13  C   UNL     1      12.038  10.394  11.711  0.00  0.00    +0.002 C 
ATOM     14  C   UNL     1      11.117  10.669  10.514  0.00  0.00    +0.002 C 
ATOM     15  C   UNL     1      10.830   9.324   9.841  0.00  0.00    +0.028 C 
ENDBRANCH   4  11
BRANCH   3  16
ATOM     16  C   UNL     1      13.147   6.847   9.229  0.00  0.00    +0.047 C 
ATOM     17  C   UNL     1      12.356   6.546   7.942  0.00  0.00    +0.009 C 
ENDBRANCH   3  16
TORSDOF 2
