REMARK  Name = 3bbf_ligand
REMARK  8 active torsions:
REMARK  status: ('A' for Active; 'I' for Inactive)
REMARK    1  A    between atoms: PB_1  and  O3A_5
REMARK    2  A    between atoms: O3A_5  and  PA_6
REMARK    3  A    between atoms: PA_6  and  O5'_9
REMARK    4  A    between atoms: O5'_9  and  C5'_10
REMARK    5  A    between atoms: C5'_10  and  C4'_11
REMARK    6  A    between atoms: C3'_13  and  O3'_14
REMARK    7  A    between atoms: C2'_15  and  O2'_16
REMARK    8  A    between atoms: C1'_17  and  N9_18
REMARK                            x       y       z     vdW  Elec       q    Type
REMARK                         _______ _______ _______ _____ _____    ______ ____
ROOT
ATOM      6  C   UNL     1      22.073  33.726  32.463  0.00  0.00    +0.184 C 
ATOM      7  C   UNL     1      23.337  34.308  33.077  0.00  0.00    +0.180 C 
ATOM      8  C   UNL     1      24.186  33.064  33.081  0.00  0.00    +0.208 C 
ATOM      9  C   UNL     1      23.807  32.410  31.762  0.00  0.00    +0.324 C 
ATOM     29  O   UNL     1      22.505  32.858  31.419  0.00  0.00    -0.335 OA
ENDROOT
BRANCH   9  10
ATOM     10  N   UNL     1      24.708  32.821  30.680  0.00  0.00    -0.095 N 
ATOM     11  C   UNL     1      25.616  32.000  30.173  0.00  0.00    +0.327 A 
ATOM     12  N   UNL     1      25.949  30.701  30.445  0.00  0.00    -0.190 N 
ATOM     13  H   UNL     1      25.448  30.167  31.169  0.00  0.00    +0.252 HD
ATOM     14  C   UNL     1      26.956  30.137  29.735  0.00  0.00    +0.204 A 
ATOM     15  N   UNL     1      27.296  28.847  29.981  0.00  0.00    -0.333 N 
ATOM     16  H   UNL     1      28.039  28.396  29.428  0.00  0.00    +0.177 HD
ATOM     17  H   UNL     1      26.811  28.319  30.721  0.00  0.00    +0.177 HD
ATOM     18  N   UNL     1      27.606  30.791  28.768  0.00  0.00    -0.248 N 
ATOM     19  H   UNL     1      28.318  30.294  28.272  0.00  0.00    +0.182 HD
ATOM     20  C   UNL     1      27.376  32.062  28.413  0.00  0.00    +0.263 A 
ATOM     21  O   UNL     1      28.062  32.582  27.515  0.00  0.00    -0.359 OA
ATOM     22  C   UNL     1      26.306  32.787  29.141  0.00  0.00    +0.256 A 
ATOM     23  N   UNL     1      25.729  34.015  29.120  0.00  0.00    -0.193 NA
ATOM     24  C   UNL     1      24.750  34.017  30.048  0.00  0.00    +0.368 A 
ENDBRANCH   9  10
BRANCH   8  25
ATOM     25  O   UNL     1      23.813  32.195  34.156  0.00  0.00    -0.384 OA
ATOM     26  H   UNL     1      23.930  32.648  34.983  0.00  0.00    +0.210 HD
ENDBRANCH   8  25
BRANCH   7  27
ATOM     27  O   UNL     1      23.062  34.878  34.354  0.00  0.00    -0.386 OA
ATOM     28  H   UNL     1      22.420  35.571  34.258  0.00  0.00    +0.210 HD
ENDBRANCH   7  27
BRANCH   6   5
ATOM      5  C   UNL     1      21.129  34.771  31.933  0.00  0.00    +0.243 C 
BRANCH   5   4
ATOM      4  O   UNL     1      21.785  35.559  30.963  0.00  0.00    -0.244 OA
BRANCH   4   3
ATOM      3  P   UNL     1      21.287  37.087  30.865  0.00  0.00    +0.328 P 
ATOM     30  O   UNL     1      21.721  37.688  29.557  0.00  0.00    -0.556 OA
ATOM     31  O   UNL     1      19.810  37.062  31.045  0.00  0.00    -0.556 OA
BRANCH   3   2
ATOM      2  O   UNL     1      22.037  37.895  32.035  0.00  0.00    -0.155 OA
BRANCH   2   1
ATOM      1  P   UNL     1      21.606  38.173  33.579  0.00  0.00    +0.207 P 
ATOM     32  O   UNL     1      21.706  36.932  34.399  0.00  0.00    -0.589 OA
ATOM     33  O   UNL     1      22.703  39.110  34.120  0.00  0.00    -0.589 OA
ATOM     34  O   UNL     1      20.216  38.833  33.613  0.00  0.00    -0.589 OA
ENDBRANCH   2   1
ENDBRANCH   3   2
ENDBRANCH   4   3
ENDBRANCH   5   4
ENDBRANCH   6   5
TORSDOF 8
