REMARK  Name = L33
REMARK  8 active torsions:
REMARK  status: ('A' for Active; 'I' for Inactive)
REMARK    1  A    between atoms: C4_4  and  C27_11
REMARK    2  A    between atoms: C3_5  and  C2_18
REMARK    3  A    between atoms: C11_6  and  N10_22
REMARK    4  A    between atoms: C13_8  and  S18_28
REMARK    5  A    between atoms: C7_9  and  C8_12
REMARK    6  A    between atoms: C22_19  and  N21_23
REMARK    7  A    between atoms: C24_20  and  N21_23
REMARK    8  A    between atoms: N21_23  and  S18_28
REMARK                            x       y       z     vdW  Elec       q    Type
REMARK                         _______ _______ _______ _____ _____    ______ ____
ROOT
ATOM      1  C   UNL     1       1.528  54.949  24.999  0.00  0.00    +0.003 A 
ATOM      2  C   UNL     1       2.453  55.939  24.676  0.00  0.00    +0.017 A 
ATOM      3  C   UNL     1       2.853  56.121  23.349  0.00  0.00    +0.075 A 
ATOM     18  C   UNL     1       2.289  55.291  22.347  0.00  0.00    +0.036 A 
ATOM     19  C   UNL     1       1.348  54.302  22.683  0.00  0.00    +0.124 A 
ATOM     28  C   UNL     1       0.980  54.126  24.014  0.00  0.00    +0.020 A 
ENDROOT
BRANCH   3   4
ATOM      4  N   UNL     1       3.752  57.134  23.121  0.00  0.00    -0.174 NA
ATOM      5  C   UNL     1       4.343  57.342  21.941  0.00  0.00    +0.286 C 
ATOM     17  O   UNL     1       4.362  56.469  21.084  0.00  0.00    -0.266 OA
BRANCH   5   6
ATOM      6  C   UNL     1       5.009  58.631  21.558  0.00  0.00    +0.132 A 
ATOM      7  C   UNL     1       4.720  59.995  22.082  0.00  0.00    +0.004 A 
ATOM     10  C   UNL     1       5.601  60.816  21.384  0.00  0.00    +0.046 A 
ATOM     14  C   UNL     1       6.401  59.974  20.475  0.00  0.00    +0.062 A 
ATOM     15  C   UNL     1       7.464  60.442  19.512  0.00  0.00    +0.052 C 
ATOM     16  N   UNL     1       5.986  58.703  20.635  0.00  0.00    -0.245 NA
BRANCH  10  11
ATOM     11  C   UNL     1       5.758  62.298  21.440  0.00  0.00    +0.174 C 
ATOM     12  C   UNL     1       4.552  63.077  21.898  0.00  0.00    +0.077 C 
ATOM     13  O   UNL     1       6.780  62.861  21.052  0.00  0.00    -0.291 OA
ENDBRANCH  10  11
BRANCH   7   8
ATOM      8  C   UNL     1       3.719  60.402  23.135  0.00  0.00    +0.028 C 
ATOM      9  C   UNL     1       4.472  60.952  24.324  0.00  0.00    +0.005 C 
ENDBRANCH   7   8
ENDBRANCH   5   6
ENDBRANCH   3   4
BRANCH  19  20
ATOM     20  S   UNL     1       0.690  53.330  21.571  0.00  0.00    +0.063 S 
ATOM     21  O   UNL     1      -0.619  52.880  21.995  0.00  0.00    -0.153 OA
ATOM     27  O   UNL     1       0.560  54.028  20.335  0.00  0.00    -0.153 OA
BRANCH  20  22
ATOM     22  N   UNL     1       1.580  52.076  21.480  0.00  0.00    -0.156 NA
BRANCH  22  23
ATOM     23  C   UNL     1       1.298  50.925  22.340  0.00  0.00    +0.096 C 
ATOM     24  C   UNL     1       2.376  50.795  23.389  0.00  0.00    +0.021 C 
ENDBRANCH  22  23
BRANCH  22  25
ATOM     25  C   UNL     1       2.698  52.031  20.545  0.00  0.00    +0.096 C 
ATOM     26  C   UNL     1       2.662  50.726  19.776  0.00  0.00    +0.021 C 
ENDBRANCH  22  25
ENDBRANCH  20  22
ENDBRANCH  19  20
TORSDOF 8
