REMARK  Name = 77X
REMARK  2 active torsions:
REMARK  status: ('A' for Active; 'I' for Inactive)
REMARK    1  A    between atoms: CAR_2  and  CAP_3
REMARK    2  A    between atoms: CAE_13  and  CAJ_14
REMARK                            x       y       z     vdW  Elec       q    Type
REMARK                         _______ _______ _______ _____ _____    ______ ____
ROOT
ATOM      3  C   UNL     1      33.208  17.690   0.351  0.00  0.00    +0.226 C 
ATOM      4  N   UNL     1      32.846  16.423   0.185  0.00  0.00    -0.275 N 
ATOM      5  C   UNL     1      31.445  15.941   0.246  0.00  0.00    +0.123 C 
ATOM      6  C   UNL     1      31.176  15.429  -1.159  0.00  0.00    +0.032 A 
ATOM      7  C   UNL     1      29.979  15.154  -1.793  0.00  0.00    +0.102 A 
ATOM     14  N   UNL     1      30.332  14.726  -3.012  0.00  0.00    -0.148 NA
ATOM     15  N   UNL     1      31.561  14.722  -3.197  0.00  0.00    -0.153 NA
ATOM     16  C   UNL     1      32.167  15.133  -2.080  0.00  0.00    +0.081 A 
ATOM     17  C   UNL     1      33.658  15.279  -1.802  0.00  0.00    +0.069 C 
ATOM     18  C   UNL     1      33.859  15.451  -0.280  0.00  0.00    +0.100 C 
ATOM     19  O   UNL     1      34.368  18.021   0.129  0.00  0.00    -0.275 OA
ENDROOT
BRANCH   7   8
ATOM      8  C   UNL     1      28.686  15.231  -1.226  0.00  0.00    +0.019 A 
ATOM      9  C   UNL     1      28.458  15.037   0.149  0.00  0.00    +0.002 A 
ATOM     10  C   UNL     1      27.185  15.030   0.746  0.00  0.00    +0.000 A 
ATOM     11  C   UNL     1      26.081  15.205  -0.055  0.00  0.00    +0.000 A 
ATOM     12  C   UNL     1      26.293  15.380  -1.422  0.00  0.00    +0.000 A 
ATOM     13  C   UNL     1      27.558  15.381  -2.028  0.00  0.00    +0.002 A 
ENDBRANCH   7   8
BRANCH   3   2
ATOM      1  C   UNL     1      31.702  18.715   2.107  0.00  0.00    +0.010 C 
ATOM      2  C   UNL     1      32.177  18.795   0.680  0.00  0.00    +0.085 C 
ENDBRANCH   3   2
TORSDOF 2
