REMARK  Name = 501
REMARK  0 active torsions:
REMARK  status: ('A' for Active; 'I' for Inactive)
REMARK                            x       y       z     vdW  Elec       q    Type
REMARK                         _______ _______ _______ _____ _____    ______ ____
ROOT
ATOM      1  C   UNL     1      14.000   4.785  24.463  0.00  0.00    +0.279 C 
ATOM      2  O   UNL     1      15.000   4.358  25.205  0.00  0.00    -0.279 OA
ENDROOT
TORSDOF 0
