REMARK  Name = 2zaz_ligand
REMARK  6 active torsions:
REMARK  status: ('A' for Active; 'I' for Inactive)
REMARK    1  A    between atoms: C20_2  and  C19_3
REMARK    2  A    between atoms: C17_7  and  C13_8
REMARK    3  A    between atoms: C8_17  and  N1_18
REMARK    4  A    between atoms: N1_18  and  C7_19
REMARK    5  A    between atoms: C2_20  and  C1_21
REMARK    6  A    between atoms: C5_23  and  O1_24
REMARK                            x       y       z     vdW  Elec       q    Type
REMARK                         _______ _______ _______ _____ _____    ______ ____
ROOT
ATOM      6  C   UNL     1      46.775  33.732  28.836  0.00  0.00    -0.015 A 
ATOM      7  C   UNL     1      46.172  32.494  28.622  0.00  0.00    +0.006 A 
ATOM      8  C   UNL     1      44.995  32.199  29.320  0.00  0.00    +0.017 A 
ATOM      9  C   UNL     1      44.443  33.118  30.225  0.00  0.00    +0.032 A 
ATOM     10  C   UNL     1      43.277  32.824  30.939  0.00  0.00    +0.088 A 
ATOM     22  C   UNL     1      42.770  33.781  31.820  0.00  0.00    +0.040 A 
ATOM     23  C   UNL     1      43.420  34.999  31.988  0.00  0.00    +0.068 A 
ATOM     24  N   UNL     1      44.543  35.266  31.294  0.00  0.00    -0.323 NA
ATOM     25  C   UNL     1      45.061  34.353  30.430  0.00  0.00    +0.028 A 
ATOM     26  C   UNL     1      46.228  34.645  29.729  0.00  0.00    +0.014 A 
ENDROOT
BRANCH   6   5
ATOM      3  C   UNL     1      49.518  35.562  27.384  0.00  0.00    +0.170 A 
ATOM      4  N   UNL     1      48.340  35.404  28.011  0.00  0.00    -0.281 NA
ATOM      5  C   UNL     1      47.957  34.083  28.183  0.00  0.00    +0.046 A 
ATOM     27  C   UNL     1      48.862  33.111  27.703  0.00  0.00    +0.124 A 
ATOM     28  S   UNL     1      50.233  33.997  26.991  0.00  0.00    +0.018 S 
BRANCH   3   2
ATOM      1  O   UNL     1      49.368  37.882  27.020  0.00  0.00    -0.349 OA
ATOM      2  C   UNL     1      50.102  36.891  27.067  0.00  0.00    +0.309 C 
ENDBRANCH   3   2
ENDBRANCH   6   5
BRANCH  10  11
ATOM     11  N   UNL     1      42.656  31.621  30.741  0.00  0.00    -0.267 N 
ATOM     12  H   UNL     1      43.051  30.983  30.035  0.00  0.00    +0.215 HD
BRANCH  11  13
ATOM     13  C   UNL     1      41.542  31.213  31.423  0.00  0.00    +0.058 A 
ATOM     14  C   UNL     1      41.684  30.407  32.577  0.00  0.00    +0.028 A 
ATOM     15  C   UNL     1      40.543  29.981  33.280  0.00  0.00    +0.071 A 
ATOM     16  C   UNL     1      39.270  30.363  32.824  0.00  0.00    -0.008 A 
ATOM     17  C   UNL     1      39.140  31.151  31.680  0.00  0.00    -0.028 A 
ATOM     20  C   UNL     1      40.265  31.590  30.983  0.00  0.00    -0.032 A 
ATOM     21  C   UNL     1      40.078  32.454  29.758  0.00  0.00    +0.066 C 
BRANCH  15  18
ATOM     18  O   UNL     1      40.660  29.212  34.409  0.00  0.00    -0.340 OA
ATOM     19  H   UNL     1      39.795  29.019  34.750  0.00  0.00    +0.246 HD
ENDBRANCH  15  18
ENDBRANCH  11  13
ENDBRANCH  10  11
TORSDOF 5
