REMARK  Name = 5J9Z
REMARK  5 active torsions:
REMARK  status: ('A' for Active; 'I' for Inactive)
REMARK    1  A    between atoms: C_6  and  C_7
REMARK    2  A    between atoms: C_7  and  C_8
REMARK    3  A    between atoms: C_15  and  N_16
REMARK    4  A    between atoms: C_20  and  C_21
REMARK    5  A    between atoms: N_28  and  C_29
REMARK                            x       y       z     vdW  Elec       q    Type
REMARK                         _______ _______ _______ _____ _____    ______ ____
ROOT
ATOM      1  C   UNL     1       0.361  52.406 -21.868  0.00  0.00    +0.164 A 
ATOM      2  N   UNL     1      -0.550  51.528 -22.233  0.00  0.00    -0.241 N 
ATOM      3  N   UNL     1      -0.724  51.606 -23.595  0.00  0.00    -0.168 NA
ATOM      4  C   UNL     1       0.135  52.492 -24.061  0.00  0.00    +0.107 A 
ATOM     25  N   UNL     1       0.813  52.628 -20.617  0.00  0.00    -0.216 NA
ATOM     26  C   UNL     1       1.779  53.566 -20.427  0.00  0.00    +0.225 A 
ATOM     27  N   UNL     1       2.275  54.268 -21.530  0.00  0.00    -0.220 NA
ATOM     28  C   UNL     1       1.789  53.995 -22.761  0.00  0.00    +0.131 A 
ATOM     29  N   UNL     1       2.277  54.733 -23.760  0.00  0.00    -0.343 N 
ATOM     30  H   UNL     1       3.036  55.461 -23.566  0.00  0.00    +0.144 HD
ATOM     31  H   UNL     1       1.909  54.596 -24.755  0.00  0.00    +0.144 HD
ATOM     32  C   UNL     1       0.813  53.052 -22.983  0.00  0.00    +0.086 A 
ENDROOT
BRANCH   4   5
ATOM      5  C   UNL     1       0.149  52.700 -25.414  0.00  0.00    +0.028 A 
ATOM      6  C   UNL     1      -0.936  52.977 -26.141  0.00  0.00    +0.096 A 
ATOM      7  N   UNL     1      -0.555  53.078 -27.403  0.00  0.00    -0.349 N 
ATOM      8  C   UNL     1      -1.423  53.441 -28.507  0.00  0.00    +0.149 C 
ATOM      9  C   UNL     1       0.758  52.833 -27.502  0.00  0.00    +0.050 A 
ATOM     10  C   UNL     1       1.567  52.828 -28.607  0.00  0.00    +0.026 A 
ATOM     11  C   UNL     1       2.925  52.512 -28.465  0.00  0.00    +0.002 A 
ATOM     12  C   UNL     1       3.399  52.203 -27.159  0.00  0.00    +0.001 A 
ATOM     13  C   UNL     1       2.489  52.231 -26.057  0.00  0.00    +0.010 A 
ATOM     14  C   UNL     1       1.196  52.555 -26.255  0.00  0.00    +0.009 A 
ENDBRANCH   4   5
BRANCH   2  15
ATOM     15  C   UNL     1      -1.322  50.676 -21.327  0.00  0.00    +0.127 C 
ATOM     16  C   UNL     1      -0.596  49.432 -20.871  0.00  0.00    +0.030 C 
ATOM     17  C   UNL     1      -1.485  48.787 -19.819  0.00  0.00    +0.021 C 
ATOM     18  C   UNL     1      -2.733  48.353 -20.486  0.00  0.00    +0.108 C 
ATOM     19  N   UNL     1      -3.422  49.556 -20.918  0.00  0.00    -0.299 N 
ATOM     20  C   UNL     1      -4.636  49.799 -20.374  0.00  0.00    +0.215 C 
ATOM     21  O   UNL     1      -5.125  49.033 -19.547  0.00  0.00    -0.276 OA
ATOM     24  C   UNL     1      -2.720  50.348 -21.934  0.00  0.00    +0.134 C 
BRANCH  20  22
ATOM     22  C   UNL     1      -5.480  51.000 -20.848  0.00  0.00    +0.092 C 
ATOM     23  C   UNL     1      -6.373  51.334 -19.661  0.00  0.00    +0.013 C 
ENDBRANCH  20  22
ENDBRANCH   2  15
TORSDOF 3
