REMARK  Name = 9XK
REMARK  4 active torsions:
REMARK  status: ('A' for Active; 'I' for Inactive)
REMARK    1  A    between atoms: C11_11  and  C13_13
REMARK    2  A    between atoms: C13_13  and  S14_14
REMARK    3  A    between atoms: S14_14  and  C15_15
REMARK    4  A    between atoms: N24_24  and  C25_25
REMARK                            x       y       z     vdW  Elec       q    Type
REMARK                         _______ _______ _______ _____ _____    ______ ____
ROOT
ATOM      1  H   UNK     1      -4.070   1.000   8.000  0.00  0.00    +0.000 HD
ENDROOT
TORSDOF 0
