REMARK  Name = 9K8
REMARK  7 active torsions:
REMARK  status: ('A' for Active; 'I' for Inactive)
REMARK    1  A    between atoms: C1_1  and  C2_2
REMARK    2  A    between atoms: C7_6  and  S_20
REMARK    3  A    between atoms: C8_7  and  C5_17
REMARK    4  A    between atoms: C8_7  and  O3_24
REMARK    5  A    between atoms: C9_8  and  C10_9
REMARK    6  A    between atoms: C9_8  and  O3_24
REMARK    7  A    between atoms: C13_12  and  N_26
REMARK                            x       y       z     vdW  Elec       q    Type
REMARK                         _______ _______ _______ _____ _____    ______ ____
ROOT
ATOM     15  C   UNL     1      85.643   6.614   9.794  0.00  0.00    +0.194 C 
ATOM     16  C   UNL     1      84.433   5.787  10.252  0.00  0.00    +0.217 C 
ATOM     17  C   UNL     1      85.081   4.550  10.888  0.00  0.00    +0.234 C 
ATOM     18  O   UNL     1      84.261   3.387  10.848  0.00  0.00    -0.216 OA
ATOM     19  C   UNL     1      86.355   4.432  10.052  0.00  0.00    +0.241 C 
ATOM     30  O   UNL     1      83.574   5.477   9.157  0.00  0.00    -0.218 OA
ATOM     31  O   UNL     1      86.807   5.760   9.899  0.00  0.00    -0.329 OA
ENDROOT
BRANCH  19  20
ATOM     20  N   UNL     1      87.416   3.636  10.669  0.00  0.00    -0.269 N 
ATOM     21  C   UNL     1      87.976   3.833  11.901  0.00  0.00    +0.182 A 
ATOM     22  N   UNL     1      88.837   2.907  12.256  0.00  0.00    -0.219 NA
ATOM     23  C   UNL     1      88.848   2.041  11.168  0.00  0.00    +0.152 A 
ATOM     24  C   UNL     1      89.559   0.850  10.912  0.00  0.00    +0.192 A 
ATOM     25  N   UNL     1      90.417   0.300  11.773  0.00  0.00    -0.105 NA
ATOM     26  N   UNL     1      89.334   0.223   9.731  0.00  0.00    -0.204 NA
ATOM     27  C   UNL     1      88.434   0.745   8.887  0.00  0.00    +0.202 A 
ATOM     28  N   UNL     1      87.713   1.863   9.020  0.00  0.00    -0.205 NA
ATOM     29  C   UNL     1      87.958   2.465  10.193  0.00  0.00    +0.169 A 
ENDBRANCH  19  20
BRANCH  15  14
ATOM     14  C   UNL     1      85.873   7.916  10.518  0.00  0.00    +0.241 C 
BRANCH  14  13
ATOM     13  O   UNL     1      86.156   7.675  11.916  0.00  0.00    -0.443 OA
BRANCH  13  11
ATOM     11  C   UNL     1      86.947   8.565  12.529  0.00  0.00    +0.341 C 
ATOM     12  O   UNL     1      87.426   9.529  11.976  0.00  0.00    -0.245 OA
BRANCH  11   9
ATOM      3  C   UNL     1      87.589   7.721  16.720  0.00  0.00    -0.005 A 
ATOM      4  C   UNL     1      88.172   8.828  16.077  0.00  0.00    +0.100 A 
ATOM      8  C   UNL     1      87.943   9.095  14.732  0.00  0.00    +0.024 A 
ATOM      9  C   UNL     1      87.168   8.234  13.965  0.00  0.00    +0.077 A 
ATOM     10  C   UNL     1      86.569   7.142  14.588  0.00  0.00    +0.006 A 
ATOM     32  C   UNL     1      86.808   6.877  15.926  0.00  0.00    -0.003 A 
BRANCH   4   5
ATOM      5  S   UNL     1      89.126  10.000  16.828  0.00  0.00    +0.004 S 
ATOM      6  O   UNL     1      89.413   9.640  18.163  0.00  0.00    -0.073 OA
ATOM      7  O   UNL     1      88.631  11.287  16.543  0.00  0.00    -0.073 OA
ENDBRANCH   4   5
BRANCH   3   1
ATOM      1  C   UNL     1      87.767   7.357  18.179  0.00  0.00    +0.028 C 
ATOM      2  C   UNL     1      86.756   7.988  19.125  0.00  0.00    +0.005 C 
ENDBRANCH   3   1
ENDBRANCH  11   9
ENDBRANCH  13  11
ENDBRANCH  14  13
ENDBRANCH  15  14
TORSDOF 7
