REMARK  Name = 2A2Z
REMARK  4 active torsions:
REMARK  status: ('A' for Active; 'I' for Inactive)
REMARK    1  A    between atoms: N1_1  and  C1*_9
REMARK    2  A    between atoms: C3*_11  and  O3*_14
REMARK    3  A    between atoms: C4*_12  and  C5*_15
REMARK    4  A    between atoms: C5*_15  and  O5*_16
REMARK                            x       y       z     vdW  Elec       q    Type
REMARK                         _______ _______ _______ _____ _____    ______ ____
ROOT
ATOM      1  N1    C A   1      37.232  78.748  39.970  0.00  0.00    -0.273 N 
ATOM     12  C6    C A   1      37.055  80.024  39.589  0.00  0.00    +0.096 C 
ATOM     13  C5    C A   1      37.559  80.458  38.426  0.00  0.00    +0.061 C 
ATOM     14  C4    C A   1      38.256  79.647  37.602  0.00  0.00    +0.123 C 
ATOM     15  N4    C A   1      38.769  80.052  36.409  0.00  0.00    -0.343 N 
ATOM     16  H41   C A   1      38.633  81.062  36.083  0.00  0.00    +0.144 HD
ATOM     17  H42   C A   1      39.309  79.361  35.796  0.00  0.00    +0.144 HD
ATOM     18  N3    C A   1      38.489  78.366  37.903  0.00  0.00    -0.178 NA
ATOM     19  C2    C A   1      37.964  77.922  39.107  0.00  0.00    +0.352 C 
ATOM     20  O2    C A   1      38.219  76.657  39.345  0.00  0.00    -0.244 OA
ENDROOT
BRANCH   1   2
ATOM      2  C1*   C A   1      36.669  78.178  41.267  0.00  0.00    +0.226 C 
ATOM      3  O4*   C A   1      35.265  78.524  41.354  0.00  0.00    -0.348 OA
ATOM      4  C4*   C A   1      34.835  78.626  42.730  0.00  0.00    +0.175 C 
ATOM      8  C3*   C A   1      36.046  78.277  43.542  0.00  0.00    +0.150 C 
ATOM     11  C2*   C A   1      37.244  78.546  42.623  0.00  0.00    +0.088 C 
BRANCH   8   9
ATOM      9  O3*   C A   1      35.988  76.885  43.856  0.00  0.00    -0.389 OA
ATOM     10  H3*   C A   1      35.881  76.330  42.971  0.00  0.00    +0.210 HD
ENDBRANCH   8   9
BRANCH   4   5
ATOM      5  C5*   C A   1      34.354  80.019  43.066  0.00  0.00    +0.190 C 
BRANCH   5   6
ATOM      6  O5*   C A   1      35.343  80.995  42.726  0.00  0.00    -0.392 OA
ATOM      7  H5*   C A   1      36.224  80.803  43.264  0.00  0.00    +0.209 HD
ENDBRANCH   5   6
ENDBRANCH   4   5
ENDBRANCH   1   2
TORSDOF 4
