REMARK  Name = 5AJY
REMARK  7 active torsions:
REMARK  status: ('A' for Active; 'I' for Inactive)
REMARK    1  A    between atoms: C_1  and  N_2
REMARK    2  A    between atoms: O_3  and  C_17
REMARK    3  A    between atoms: O_3  and  C_20
REMARK    4  A    between atoms: C_7  and  C_11
REMARK    5  A    between atoms: N_10  and  C_23
REMARK    6  A    between atoms: N_12  and  C_27
REMARK    7  A    between atoms: C_26  and  C_27
REMARK                            x       y       z     vdW  Elec       q    Type
REMARK                         _______ _______ _______ _____ _____    ______ ____
ROOT
ATOM      6  C   UNL     1     -40.858 -41.944 -12.059  0.00  0.00    +0.012 A 
ATOM      7  C   UNL     1     -41.435 -40.676 -12.445  0.00  0.00    +0.013 A 
ATOM      8  C   UNL     1     -40.913 -39.410 -12.702  0.00  0.00    +0.057 A 
ATOM      9  C   UNL     1     -41.781 -38.387 -13.068  0.00  0.00    +0.129 A 
ATOM     10  C   UNL     1     -43.156 -38.593 -13.169  0.00  0.00    +0.048 A 
ATOM     11  C   UNL     1     -43.683 -39.856 -12.958  0.00  0.00    +0.032 A 
ATOM     27  C   UNL     1     -42.820 -40.885 -12.582  0.00  0.00    +0.072 A 
ATOM     28  N   UNL     1     -43.081 -42.200 -12.272  0.00  0.00    -0.254 NA
ATOM     29  C   UNL     1     -41.908 -42.825 -11.950  0.00  0.00    +0.120 A 
ENDROOT
BRANCH   6   5
ATOM      1  C   UNL     1     -35.897 -42.539 -12.399  0.00  0.00    +0.172 C 
ATOM      2  N   UNL     1     -37.275 -42.458 -11.924  0.00  0.00    -0.274 N 
ATOM      3  N   UNL     1     -37.559 -42.706 -10.624  0.00  0.00    -0.179 NA
ATOM      4  C   UNL     1     -38.872 -42.556 -10.530  0.00  0.00    +0.143 A 
ATOM      5  C   UNL     1     -39.445 -42.238 -11.775  0.00  0.00    +0.022 A 
ATOM     30  C   UNL     1     -38.369 -42.170 -12.640  0.00  0.00    +0.116 A 
ENDBRANCH   6   5
BRANCH   9  12
ATOM     12  O   UNL     1     -41.245 -37.131 -13.322  0.00  0.00    -0.456 OA
BRANCH  12  13
ATOM     13  C   UNL     1     -41.164 -36.676 -14.635  0.00  0.00    +0.129 A 
ATOM     14  C   UNL     1     -41.203 -35.309 -14.858  0.00  0.00    +0.048 A 
ATOM     15  C   UNL     1     -41.103 -34.821 -16.149  0.00  0.00    +0.027 A 
ATOM     16  C   UNL     1     -40.927 -35.693 -17.220  0.00  0.00    +0.034 A 
ATOM     17  C   UNL     1     -40.911 -37.067 -16.987  0.00  0.00    +0.027 A 
ATOM     26  C   UNL     1     -41.000 -37.558 -15.697  0.00  0.00    +0.048 A 
BRANCH  16  18
ATOM     18  N   UNL     1     -40.836 -35.136 -18.521  0.00  0.00    -0.284 N 
ATOM     19  H   UNL     1     -41.064 -34.093 -18.597  0.00  0.00    +0.155 HD
ATOM     20  C   UNL     1     -40.499 -35.748 -19.678  0.00  0.00    +0.231 C 
ATOM     25  O   UNL     1     -40.082 -36.903 -19.759  0.00  0.00    -0.274 OA
BRANCH  20  21
ATOM     21  C   UNL     1     -40.648 -34.925 -20.975  0.00  0.00    +0.175 C 
BRANCH  21  22
ATOM     22  N   UNL     1     -39.612 -35.224 -21.913  0.00  0.00    -0.323 NA
ATOM     23  H   UNL     1     -38.661 -34.998 -21.479  0.00  0.00    +0.119 HD
ATOM     24  H   UNL     1     -39.650 -36.263 -22.168  0.00  0.00    +0.119 HD
ENDBRANCH  21  22
ENDBRANCH  20  21
ENDBRANCH  16  18
ENDBRANCH  12  13
ENDBRANCH   9  12
TORSDOF 6
