REMARK  Name = 4ZY4
REMARK  2 active torsions:
REMARK  status: ('A' for Active; 'I' for Inactive)
REMARK    1  A    between atoms: C_4  and  C_5
REMARK    2  A    between atoms: C_23  and  N_25
REMARK                            x       y       z     vdW  Elec       q    Type
REMARK                         _______ _______ _______ _____ _____    ______ ____
ROOT
ATOM      1  C   UNL     1      12.690 -14.063  17.131  0.00  0.00    +0.078 A 
ATOM      2  C   UNL     1      13.997 -14.247  16.637  0.00  0.00    +0.143 A 
ATOM      3  N   UNL     1      14.774 -15.308  17.094  0.00  0.00    -0.282 N 
ATOM      4  H   UNL     1      14.495 -15.782  18.012  0.00  0.00    +0.155 HD
ATOM      5  C   UNL     1      15.907 -15.790  16.413  0.00  0.00    +0.146 A 
ATOM      6  N   UNL     1      16.786 -16.631  16.907  0.00  0.00    -0.158 NA
ATOM      7  N   UNL     1      17.762 -16.887  15.935  0.00  0.00    -0.280 N 
ATOM      8  H   UNL     1      18.608 -17.532  16.046  0.00  0.00    +0.189 HD
ATOM      9  C   UNL     1      17.443 -16.174  14.834  0.00  0.00    +0.041 A 
ATOM     13  C   UNL     1      16.306 -15.497  15.096  0.00  0.00    +0.068 A 
ATOM     14  N   UNL     1      14.457 -13.383  15.737  0.00  0.00    -0.198 NA
ATOM     15  C   UNL     1      13.709 -12.374  15.303  0.00  0.00    +0.220 A 
ATOM     16  N   UNL     1      14.248 -11.508  14.361  0.00  0.00    -0.299 N 
ATOM     17  C   UNL     1      13.393 -10.574  13.626  0.00  0.00    +0.109 C 
ATOM     18  C   UNL     1      14.067  -9.201  13.649  0.00  0.00    +0.037 C 
ATOM     19  C   UNL     1      15.494  -9.323  13.105  0.00  0.00    +0.054 C 
ATOM     23  C   UNL     1      16.306 -10.291  13.970  0.00  0.00    +0.037 C 
ATOM     24  C   UNL     1      15.641 -11.666  13.946  0.00  0.00    +0.109 C 
ATOM     25  N   UNL     1      12.483 -12.167  15.745  0.00  0.00    -0.214 NA
ATOM     26  S   UNL     1      11.751 -14.967  18.306  0.00  0.00    -0.092 S 
ATOM     27  C   UNL     1      10.385 -13.887  18.125  0.00  0.00    +0.048 A 
ATOM     28  C   UNL     1      10.657 -12.941  17.245  0.00  0.00    +0.036 A 
ATOM     29  C   UNL     1      11.929 -12.991  16.663  0.00  0.00    +0.085 A 
ENDROOT
BRANCH   9  10
ATOM     10  C   UNL     1      18.207 -16.140  13.534  0.00  0.00    +0.037 C 
ATOM     11  C   UNL     1      19.235 -15.027  13.325  0.00  0.00    +0.010 C 
ATOM     12  C   UNL     1      17.900 -14.990  12.577  0.00  0.00    +0.010 C 
ENDBRANCH   9  10
BRANCH  19  20
ATOM     20  N   UNL     1      16.146  -8.007  13.119  0.00  0.00    -0.327 NA
ATOM     21  H   UNL     1      16.191  -7.641  14.124  0.00  0.00    +0.118 HD
ATOM     22  H   UNL     1      17.138  -8.096  12.727  0.00  0.00    +0.118 HD
ENDBRANCH  19  20
TORSDOF 2
