REMARK  Name = 3v6r_ligand
REMARK  11 active torsions:
REMARK  status: ('A' for Active; 'I' for Inactive)
REMARK    1  A    between atoms: C06_6  and  C07_7
REMARK    2  A    between atoms: N13_13  and  C14_14
REMARK    3  A    between atoms: C19_19  and  N20_20
REMARK    4  A    between atoms: C21_21  and  C23_23
REMARK    5  A    between atoms: C28_28  and  N29_29
REMARK    6  A    between atoms: C30_30  and  C32_32
REMARK    7  A    between atoms: C32_32  and  C33_33
REMARK    8  A    between atoms: C33_33  and  C34_34
REMARK    9  A    between atoms: C34_34  and  N35_35
REMARK   10  A    between atoms: N35_35  and  C36_36
REMARK   11  A    between atoms: N35_35  and  C37_37
REMARK                            x       y       z     vdW  Elec       q    Type
REMARK                         _______ _______ _______ _____ _____    ______ ____
ROOT
ATOM     10  C   UNL     1      24.512 -14.536 -28.885  0.00  0.00    +0.051 A 
ATOM     11  C   UNL     1      25.398 -14.344 -29.959  0.00  0.00    -0.012 A 
ATOM     12  C   UNL     1      26.118 -15.430 -30.480  0.00  0.00    -0.029 A 
ATOM     13  C   UNL     1      25.958 -16.719 -29.939  0.00  0.00    -0.012 A 
ATOM     14  C   UNL     1      25.056 -16.927 -28.897  0.00  0.00    +0.056 A 
ATOM     35  C   UNL     1      24.396 -15.826 -28.346  0.00  0.00    +0.022 A 
ENDROOT
BRANCH  10   8
ATOM      3  C   UNL     1      20.773 -15.185 -27.136  0.00  0.00    +0.062 A 
ATOM      4  C   UNL     1      20.099 -14.148 -26.495  0.00  0.00    +0.053 A 
ATOM      5  C   UNL     1      20.675 -12.882 -26.524  0.00  0.00    +0.104 A 
ATOM      6  N   UNL     1      21.849 -12.691 -27.154  0.00  0.00    -0.251 NA
ATOM      7  C   UNL     1      22.521 -13.707 -27.758  0.00  0.00    +0.211 A 
ATOM      8  N   UNL     1      23.777 -13.428 -28.368  0.00  0.00    -0.245 N 
ATOM      9  H   UNL     1      24.136 -12.476 -28.433  0.00  0.00    +0.218 HD
ATOM     36  N   UNL     1      21.959 -14.946 -27.751  0.00  0.00    -0.245 NA
BRANCH   3   2
ATOM      1  C   UNL     1      21.016 -17.644 -27.567  0.00  0.00    +0.111 A 
ATOM      2  C   UNL     1      20.247 -16.571 -27.083  0.00  0.00    +0.032 A 
ATOM     37  C   UNL     1      19.017 -16.832 -26.481  0.00  0.00    +0.048 A 
ATOM     38  C   UNL     1      18.584 -18.158 -26.421  0.00  0.00    +0.042 A 
ATOM     39  C   UNL     1      19.390 -19.190 -26.922  0.00  0.00    +0.099 A 
ATOM     40  N   UNL     1      20.566 -18.912 -27.493  0.00  0.00    -0.292 NA
ENDBRANCH   3   2
ENDBRANCH  10   8
BRANCH  14  15
ATOM     15  N   UNL     1      24.845 -18.203 -28.325  0.00  0.00    -0.238 N 
ATOM     16  H   UNL     1      24.636 -18.338 -27.336  0.00  0.00    +0.225 HD
ATOM     17  C   UNL     1      24.945 -19.245 -29.213  0.00  0.00    +0.221 C 
ATOM     34  O   UNL     1      24.181 -19.335 -30.164  0.00  0.00    -0.380 OA
BRANCH  17  18
ATOM     18  C   UNL     1      26.003 -20.285 -28.984  0.00  0.00    +0.040 A 
ATOM     19  C   UNL     1      27.347 -19.989 -29.229  0.00  0.00    +0.008 A 
ATOM     20  C   UNL     1      28.324 -20.965 -29.006  0.00  0.00    +0.017 A 
ATOM     21  C   UNL     1      27.977 -22.232 -28.518  0.00  0.00    +0.072 A 
ATOM     32  C   UNL     1      26.625 -22.515 -28.265  0.00  0.00    +0.017 A 
ATOM     33  C   UNL     1      25.647 -21.541 -28.484  0.00  0.00    +0.008 A 
BRANCH  21  22
ATOM     22  N   UNL     1      29.010 -23.181 -28.315  0.00  0.00    -0.231 N 
ATOM     23  H   UNL     1      29.986 -23.005 -28.554  0.00  0.00    +0.228 HD
ATOM     24  C   UNL     1      28.568 -24.368 -27.763  0.00  0.00    +0.205 C 
ATOM     31  O   UNL     1      28.568 -25.388 -28.434  0.00  0.00    -0.384 OA
BRANCH  24  25
ATOM     25  C   UNL     1      28.087 -24.402 -26.333  0.00  0.00    +0.143 C 
BRANCH  25  26
ATOM     26  C   UNL     1      29.247 -24.529 -25.356  0.00  0.00    -0.000 C 
BRANCH  26  27
ATOM     27  C   UNL     1      28.928 -25.753 -24.491  0.00  0.00    -0.108 C 
BRANCH  27  28
ATOM     28  N   UNL     1      29.125 -25.570 -23.044  0.00  0.00    +0.399 NA
ATOM     29  C   UNL     1      30.261 -26.426 -22.635  0.00  0.00    -0.132 C 
ATOM     30  C   UNL     1      27.880 -25.929 -22.322  0.00  0.00    -0.132 C 
ENDBRANCH  27  28
ENDBRANCH  26  27
ENDBRANCH  25  26
ENDBRANCH  24  25
ENDBRANCH  21  22
ENDBRANCH  17  18
ENDBRANCH  14  15
TORSDOF 9
