REMARK  Name = 1pf8_ligand
REMARK  3 active torsions:
REMARK  status: ('A' for Active; 'I' for Inactive)
REMARK    1  A    between atoms: C1'_5  and  C6'_6
REMARK    2  A    between atoms: C2_14  and  O11_15
REMARK    3  A    between atoms: O11_15  and  C12_16
REMARK                            x       y       z     vdW  Elec       q    Type
REMARK                         _______ _______ _______ _____ _____    ______ ____
ROOT
ATOM      4  C   UNL     1       2.311  29.690   8.850  0.00  0.00    +0.056 C 
ATOM      5  C   UNL     1       1.505  30.855   8.634  0.00  0.00    +0.045 C 
ATOM      6  C   UNL     1       0.326  31.169   9.371  0.00  0.00    -0.005 A 
ATOM      7  C   UNL     1      -0.242  30.402  10.391  0.00  0.00    +0.005 A 
ATOM      8  C   UNL     1      -1.560  31.062  10.995  0.00  0.00    +0.073 A 
ATOM     11  C   UNL     1      -2.013  32.265  10.496  0.00  0.00    +0.002 A 
ATOM     12  C   UNL     1      -1.350  32.957   9.455  0.00  0.00    -0.002 A 
ATOM     13  C   UNL     1      -0.154  32.389   8.888  0.00  0.00    +0.060 A 
ATOM     14  N   UNL     1       0.667  32.876   7.881  0.00  0.00    -0.242 N 
ATOM     15  H   UNL     1       0.556  33.725   7.364  0.00  0.00    +0.222 HD
ATOM     16  C   UNL     1       1.620  31.983   7.753  0.00  0.00    +0.218 C 
ATOM     17  O   UNL     1       2.497  32.160   6.941  0.00  0.00    -0.380 OA
ENDROOT
BRANCH   4   3
ATOM      1  N   UNL     1       3.901  30.318   7.215  0.00  0.00    -0.254 N 
ATOM      2  H   UNL     1       3.581  31.265   6.967  0.00  0.00    +0.238 HD
ATOM      3  C   UNL     1       3.229  29.465   8.189  0.00  0.00    +0.083 A 
ATOM     18  C   UNL     1       4.116  28.241   8.388  0.00  0.00    +0.061 A 
ATOM     19  N   UNL     1       5.170  28.299   7.269  0.00  0.00    -0.310 NA
ATOM     20  C   UNL     1       5.056  29.693   6.641  0.00  0.00    +0.234 A 
ENDBRANCH   4   3
BRANCH   8   9
ATOM      9  O   UNL     1      -2.150  30.434  11.936  0.00  0.00    -0.332 OA
ATOM     10  C   UNL     1      -1.777  29.365  12.406  0.00  0.00    +0.227 C 
ENDBRANCH   8   9
TORSDOF 2
