REMARK  Name = 4QMZ
REMARK  12 active torsions:
REMARK  status: ('A' for Active; 'I' for Inactive)
REMARK    1  A    between atoms: C_1  and  C_13
REMARK    2  A    between atoms: C_5  and  C_11
REMARK    3  A    between atoms: C_8  and  C_12
REMARK    4  A    between atoms: C_10  and  C_16
REMARK    5  A    between atoms: C_12  and  C_15
REMARK    6  A    between atoms: N_19  and  C_23
REMARK    7  A    between atoms: C_23  and  C_24
REMARK    8  A    between atoms: C_24  and  N_25
REMARK    9  A    between atoms: N_25  and  C_26
REMARK   10  A    between atoms: N_25  and  C_27
REMARK   11  A    between atoms: C_26  and  C_29
REMARK   12  A    between atoms: C_27  and  C_28
REMARK                            x       y       z     vdW  Elec       q    Type
REMARK                         _______ _______ _______ _____ _____    ______ ____
ROOT
ATOM      1  C   UNL     1      -6.913  -0.026  12.864  0.00  0.00    +0.066 C 
ATOM      2  C   UNL     1      -5.895  -0.251  13.973  0.00  0.00    +0.051 A 
ATOM      3  N   UNL     1      -4.974   0.652  14.382  0.00  0.00    -0.255 NA
ATOM      4  C   UNL     1      -4.221   0.137  15.383  0.00  0.00    +0.050 A 
ATOM     17  C   UNL     1      -4.659  -1.152  15.633  0.00  0.00    -0.015 A 
ATOM     18  C   UNL     1      -4.110  -2.116  16.674  0.00  0.00    +0.046 C 
ATOM     19  C   UNL     1      -5.737  -1.404  14.728  0.00  0.00    +0.062 A 
ENDROOT
BRANCH  19  20
ATOM     20  C   UNL     1      -6.547  -2.708  14.614  0.00  0.00    +0.246 C 
ATOM     21  O   UNL     1      -7.784  -2.659  14.506  0.00  0.00    -0.270 OA
ATOM     22  N   UNL     1      -5.847  -3.963  14.625  0.00  0.00    -0.310 N 
ATOM     23  H   UNL     1      -5.303  -3.996  15.546  0.00  0.00    +0.149 HD
BRANCH  22  24
ATOM     24  C   UNL     1      -6.548  -5.226  14.520  0.00  0.00    +0.120 C 
BRANCH  24  25
ATOM     25  C   UNL     1      -6.983  -5.687  13.143  0.00  0.00    +0.103 C 
BRANCH  25  26
ATOM     26  N   UNL     1      -8.006  -6.730  13.052  0.00  0.00    -0.301 NA
BRANCH  26  27
ATOM     27  C   UNL     1      -7.751  -7.834  13.973  0.00  0.00    +0.081 C 
ATOM     28  C   UNL     1      -8.911  -8.495  14.656  0.00  0.00    +0.020 C 
ENDBRANCH  26  27
BRANCH  26  29
ATOM     29  C   UNL     1      -9.343  -6.130  13.288  0.00  0.00    +0.081 C 
ATOM     30  C   UNL     1     -10.326  -6.148  12.184  0.00  0.00    +0.020 C 
ENDBRANCH  26  29
ENDBRANCH  25  26
ENDBRANCH  24  25
ENDBRANCH  22  24
ENDBRANCH  19  20
BRANCH   4   5
ATOM      5  C   UNL     1      -3.120   0.826  16.097  0.00  0.00    +0.096 C 
BRANCH   5   6
ATOM      6  C   UNL     1      -2.578   2.056  15.740  0.00  0.00    +0.031 C 
ATOM      7  C   UNL     1      -3.068   3.079  14.922  0.00  0.00    +0.265 C 
ATOM      8  O   UNL     1      -4.109   3.131  14.323  0.00  0.00    -0.268 OA
ATOM      9  N   UNL     1      -2.143   4.091  14.908  0.00  0.00    -0.176 NA
ATOM     10  C   UNL     1      -1.058   3.744  15.702  0.00  0.00    +0.065 A 
ATOM     11  C   UNL     1       0.170   4.445  16.030  0.00  0.00    +0.028 A 
ATOM     12  C   UNL     1       1.101   3.846  16.864  0.00  0.00    +0.040 A 
ATOM     13  C   UNL     1       0.853   2.575  17.402  0.00  0.00    +0.124 A 
ATOM     14  F   UNL     1       1.758   2.016  18.206  0.00  0.00    -0.205 F 
ATOM     15  C   UNL     1      -0.350   1.888  17.096  0.00  0.00    +0.048 A 
ATOM     16  C   UNL     1      -1.299   2.497  16.237  0.00  0.00    +0.009 A 
ENDBRANCH   5   6
ENDBRANCH   4   5
TORSDOF 8
