REMARK  Name = 4FTN
REMARK  9 active torsions:
REMARK  status: ('A' for Active; 'I' for Inactive)
REMARK    1  A    between atoms: O_1  and  C_2
REMARK    2  A    between atoms: C_7  and  C_8
REMARK    3  A    between atoms: C_13  and  C_14
REMARK    4  A    between atoms: C_24  and  O_25
REMARK    5  A    between atoms: O_25  and  C_26
REMARK    6  A    between atoms: C_27  and  O_28
REMARK    7  A    between atoms: O_28  and  C_29
REMARK    8  A    between atoms: C_29  and  C_30
REMARK    9  A    between atoms: C_30  and  N_31
REMARK                            x       y       z     vdW  Elec       q    Type
REMARK                         _______ _______ _______ _____ _____    ______ ____
ROOT
ATOM     11  C   UNL     1      15.136  -3.463  10.062  0.00  0.00    +0.075 C 
ATOM     12  C   UNL     1      16.375  -4.160  10.151  0.00  0.00    +0.057 C 
ATOM     13  C   UNL     1      17.126  -5.195  10.743  0.00  0.00    +0.017 C 
ATOM     14  C   UNL     1      18.482  -5.043  10.278  0.00  0.00    -0.004 C 
ATOM     15  C   UNL     1      19.674  -5.739  10.502  0.00  0.00    +0.041 C 
ATOM     16  C   UNL     1      20.855  -5.379   9.869  0.00  0.00    +0.136 C 
ATOM     17  C   UNL     1      20.878  -4.269   8.995  0.00  0.00    +0.137 C 
ATOM     27  C   UNL     1      19.711  -3.557   8.766  0.00  0.00    +0.043 C 
ATOM     30  C   UNL     1      18.535  -3.937   9.404  0.00  0.00    +0.018 C 
ATOM     31  C   UNL     1      17.263  -3.385   9.326  0.00  0.00    +0.092 C 
ATOM     32  N   UNL     1      16.566  -2.320   8.785  0.00  0.00    -0.259 N 
ATOM     33  H   UNL     1      16.773  -1.855   7.908  0.00  0.00    +0.169 HD
ATOM     34  N   UNL     1      15.262  -2.352   9.231  0.00  0.00    -0.190 NA
ENDROOT
BRANCH  11  10
ATOM      7  C   UNL     1      11.496  -4.048  12.271  0.00  0.00    -0.018 A 
ATOM      8  C   UNL     1      11.696  -2.926  11.468  0.00  0.00    +0.009 A 
ATOM      9  C   UNL     1      12.851  -2.761  10.728  0.00  0.00    +0.010 A 
ATOM     10  C   UNL     1      13.853  -3.720  10.755  0.00  0.00    -0.002 A 
ATOM     35  C   UNL     1      13.665  -4.851  11.543  0.00  0.00    +0.010 A 
ATOM     36  C   UNL     1      12.506  -5.011  12.284  0.00  0.00    +0.009 A 
BRANCH   7   6
ATOM      3  C   UNL     1       7.736  -4.671  14.259  0.00  0.00    +0.117 A 
ATOM      4  C   UNL     1       8.145  -3.395  13.923  0.00  0.00    +0.046 A 
ATOM      5  C   UNL     1       9.350  -3.205  13.278  0.00  0.00    +0.012 A 
ATOM      6  C   UNL     1      10.180  -4.276  12.943  0.00  0.00    -0.018 A 
ATOM     37  C   UNL     1       9.757  -5.554  13.312  0.00  0.00    +0.012 A 
ATOM     38  C   UNL     1       8.551  -5.756  13.960  0.00  0.00    +0.046 A 
BRANCH   3   1
ATOM      1  O   UNL     1       6.578  -4.796  14.963  0.00  0.00    -0.507 OA
ATOM      2  H   UNL     1       6.514  -5.742  15.252  0.00  0.00    +0.292 HD
ENDBRANCH   3   1
ENDBRANCH   7   6
ENDBRANCH  11  10
BRANCH  16  28
ATOM     28  O   UNL     1      22.058  -6.023  10.025  0.00  0.00    -0.370 OA
ATOM     29  C   UNL     1      22.125  -7.122  10.935  0.00  0.00    +0.195 C 
ENDBRANCH  16  28
BRANCH  17  18
ATOM     18  O   UNL     1      22.120  -3.931   8.515  0.00  0.00    -0.366 OA
BRANCH  18  19
ATOM     19  C   UNL     1      22.255  -3.159   7.301  0.00  0.00    +0.176 C 
BRANCH  19  20
ATOM     20  C   UNL     1      22.624  -4.184   6.259  0.00  0.00    +0.112 C 
BRANCH  20  21
ATOM     21  N   UNL     1      24.110  -4.309   6.044  0.00  0.00    -0.300 NA
ATOM     22  C   UNL     1      24.856  -4.906   7.199  0.00  0.00    +0.084 C 
ATOM     23  C   UNL     1      24.555  -6.384   7.350  0.00  0.00    +0.015 C 
ATOM     24  C   UNL     1      24.840  -7.144   6.068  0.00  0.00    +0.002 C 
ATOM     25  C   UNL     1      24.128  -6.508   4.890  0.00  0.00    +0.015 C 
ATOM     26  C   UNL     1      24.449  -5.034   4.780  0.00  0.00    +0.084 C 
ENDBRANCH  20  21
ENDBRANCH  19  20
ENDBRANCH  18  19
ENDBRANCH  17  18
TORSDOF 8
