REMARK  Name = 6GR8
REMARK  9 active torsions:
REMARK  status: ('A' for Active; 'I' for Inactive)
REMARK    1  A    between atoms: OBP_2  and  CBM_3
REMARK    2  A    between atoms: CBJ_8  and  NBH_9
REMARK    3  A    between atoms: NAS_12  and  CAK_13
REMARK    4  A    between atoms: NAD_22  and  CAU_23
REMARK    5  A    between atoms: CAU_23  and  CAW_25
REMARK    6  A    between atoms: CAG_30  and  CAM_31
REMARK    7  A    between atoms: CAM_31  and  NAO_32
REMARK    8  A    between atoms: NAO_32  and  CAQ_34
REMARK    9  A    between atoms: CAQ_34  and  CAR_35
REMARK                            x       y       z     vdW  Elec       q    Type
REMARK                         _______ _______ _______ _____ _____    ______ ____
ROOT
ATOM     10  C   UNL     1      26.821   6.291  -1.780  0.00  0.00    +0.050 A 
ATOM     11  C   UNL     1      27.059   6.039  -3.132  0.00  0.00    -0.130 A 
ATOM     12  C   UNL     1      26.322   6.676  -4.090  0.00  0.00    -0.130 A 
ATOM     13  C   UNL     1      25.347   7.597  -3.732  0.00  0.00    +0.185 A 
ATOM     14  C   UNL     1      25.089   7.879  -2.366  0.00  0.00    +0.000 A 
ATOM     15  C   UNL     1      24.135   8.867  -1.730  0.00  0.00    +0.600 C 
ATOM     16  N   UNL     1      22.816   8.745  -1.970  0.00  0.00    -0.250 N 
ATOM     17  C   UNL     1      22.314   7.753  -2.931  0.00  0.00    +0.000 C 
ATOM     18  C   UNL     1      22.275   8.325  -4.328  0.00  0.00    -0.050 C 
ATOM     19  C   UNL     1      23.567   9.122  -4.661  0.00  0.00    +0.130 C 
ATOM     33  C   UNL     1      21.992   7.241  -5.373  0.00  0.00    -0.150 C 
ATOM     38  O   UNL     1      24.598   9.767  -1.023  0.00  0.00    -0.550 OA
ATOM     39  O   UNL     1      24.673   8.175  -4.782  0.00  0.00    -0.365 OA
ATOM     40  C   UNL     1      25.832   7.205  -1.400  0.00  0.00    -0.130 A 
ENDROOT
BRANCH  10   9
ATOM      7  N   UNL     1      28.418   5.302   1.308  0.00  0.00    -0.350 NA
ATOM      8  C   UNL     1      27.906   6.199   0.425  0.00  0.00    +0.650 C 
ATOM      9  N   UNL     1      27.565   5.639  -0.779  0.00  0.00    -0.350 NA
ATOM     41  O   UNL     1      27.743   7.383   0.687  0.00  0.00    -0.550 OA
BRANCH   7   6
ATOM      3  C   UNL     1      28.871   6.119   5.377  0.00  0.00    +0.185 A 
ATOM      4  C   UNL     1      29.299   7.050   4.439  0.00  0.00    -0.130 A 
ATOM      5  C   UNL     1      29.176   6.777   3.091  0.00  0.00    -0.130 A 
ATOM      6  C   UNL     1      28.606   5.574   2.667  0.00  0.00    +0.050 A 
ATOM     42  C   UNL     1      28.158   4.670   3.603  0.00  0.00    -0.130 A 
ATOM     43  C   UNL     1      28.307   4.929   4.951  0.00  0.00    -0.130 A 
BRANCH   3   2
ATOM      1  C   UNL     1      29.259   7.493   7.304  0.00  0.00    +0.030 C 
ATOM      2  O   UNL     1      28.940   6.223   6.742  0.00  0.00    -0.365 OA
ENDBRANCH   3   2
ENDBRANCH   7   6
ENDBRANCH  10   9
BRANCH  16  34
ATOM     34  C   UNL     1      21.832   9.623  -1.306  0.00  0.00    +0.050 C 
ATOM     37  C   UNL     1      21.289  10.703  -2.176  0.00  0.00    -0.150 C 
BRANCH  34  35
ATOM     35  C   UNL     1      20.897   8.964  -0.405  0.00  0.00    +0.150 C 
ATOM     36  O   UNL     1      21.592   8.368   0.673  0.00  0.00    -0.650 OA
ENDBRANCH  34  35
ENDBRANCH  16  34
BRANCH  19  20
ATOM     20  C   UNL     1      23.455   9.841  -5.979  0.00  0.00    +0.100 C 
BRANCH  20  21
ATOM     21  N   UNL     1      24.553  10.777  -6.242  0.00  0.00    -0.600 NA
ATOM     32  C   UNL     1      24.420  12.002  -5.457  0.00  0.00    +0.050 C 
BRANCH  21  22
ATOM     22  C   UNL     1      24.709  11.019  -7.670  0.00  0.00    +0.100 C 
BRANCH  22  23
ATOM     23  C   UNL     1      25.426   9.911  -8.390  0.00  0.00    +0.000 A 
ATOM     24  C   UNL     1      25.356   9.876  -9.778  0.00  0.00    -0.130 A 
ATOM     25  C   UNL     1      26.013   8.901 -10.523  0.00  0.00    -0.130 A 
ATOM     26  C   UNL     1      26.752   7.996  -9.843  0.00  0.00    +0.000 A 
ATOM     27  O   UNL     1      27.504   6.960 -10.337  0.00  0.00    -0.180 OA
ATOM     28  C   UNL     1      27.892   6.208  -9.195  0.00  0.00    +0.260 C 
ATOM     29  O   UNL     1      27.642   7.000  -8.035  0.00  0.00    -0.180 OA
ATOM     30  C   UNL     1      26.839   8.024  -8.472  0.00  0.00    +0.000 A 
ATOM     31  C   UNL     1      26.212   8.976  -7.718  0.00  0.00    -0.130 A 
ENDBRANCH  22  23
ENDBRANCH  21  22
ENDBRANCH  20  21
ENDBRANCH  19  20
TORSDOF 9
