REMARK  Name = 3uo6_ligand
REMARK  4 active torsions:
REMARK  status: ('A' for Active; 'I' for Inactive)
REMARK    1  A    between atoms: N01_1  and  C09_9
REMARK    2  A    between atoms: N04_4  and  C13_13
REMARK    3  A    between atoms: N04_4  and  C16_16
REMARK    4  A    between atoms: C06_6  and  C11_11
REMARK                            x       y       z     vdW  Elec       q    Type
REMARK                         _______ _______ _______ _____ _____    ______ ____
ROOT
ATOM      1  N   UNL     1       8.535  30.657  -0.360  0.00  0.00    -0.243 N 
ATOM      2  H   UNL     1       8.913  30.395  -1.271  0.00  0.00    +0.219 HD
ATOM      3  C   UNL     1       7.916  29.626   0.415  0.00  0.00    +0.196 A 
ATOM      4  N   UNL     1       8.076  28.365  -0.006  0.00  0.00    -0.269 NA
ATOM      5  C   UNL     1       7.529  27.338   0.671  0.00  0.00    +0.086 A 
ATOM      6  C   UNL     1       6.785  27.629   1.815  0.00  0.00    +0.057 A 
ATOM      7  C   UNL     1       6.615  28.953   2.244  0.00  0.00    +0.135 A 
ATOM     17  N   UNL     1       7.203  29.925   1.512  0.00  0.00    -0.234 NA
ENDROOT
BRANCH   1  18
ATOM     18  C   UNL     1       8.669  32.030   0.037  0.00  0.00    +0.068 A 
ATOM     19  C   UNL     1       7.781  32.634   0.919  0.00  0.00    +0.020 A 
ATOM     20  C   UNL     1       7.948  33.973   1.256  0.00  0.00    +0.005 A 
ATOM     21  C   UNL     1       9.000  34.711   0.714  0.00  0.00    -0.002 A 
ATOM     25  C   UNL     1       9.885  34.101  -0.161  0.00  0.00    +0.005 A 
ATOM     26  C   UNL     1       9.713  32.768  -0.504  0.00  0.00    +0.020 A 
BRANCH  21  22
ATOM     22  C   UNL     1       9.196  36.145   1.093  0.00  0.00    +0.055 C 
ATOM     23  O   UNL     1       9.259  36.450   2.315  0.00  0.00    -0.564 OA
ATOM     24  O   UNL     1       9.320  37.047   0.224  0.00  0.00    -0.564 OA
ENDBRANCH  21  22
ENDBRANCH   1  18
BRANCH   7   8
ATOM      8  N   UNL     1       5.844  29.255   3.424  0.00  0.00    -0.255 N 
ATOM      9  H   UNL     1       5.701  28.531   4.128  0.00  0.00    +0.217 HD
BRANCH   8  10
ATOM     10  C   UNL     1       5.273  30.558   3.625  0.00  0.00    +0.078 A 
ATOM     11  C   UNL     1       3.912  30.824   3.440  0.00  0.00    +0.063 A 
ATOM     12 CL   UNL     1       2.798  29.600   2.949  0.00  0.00    -0.079 Cl
ATOM     13  C   UNL     1       3.417  32.106   3.646  0.00  0.00    +0.002 A 
ATOM     14  C   UNL     1       4.269  33.128   4.044  0.00  0.00    -0.021 A 
ATOM     15  C   UNL     1       5.622  32.866   4.229  0.00  0.00    -0.012 A 
ATOM     16  C   UNL     1       6.116  31.588   4.018  0.00  0.00    +0.016 A 
ENDBRANCH   8  10
ENDBRANCH   7   8
TORSDOF 4
