REMARK  Name = 4ps7_ligand
REMARK  2 active torsions:
REMARK  status: ('A' for Active; 'I' for Inactive)
REMARK    1  A    between atoms: C1_1  and  C2_2
REMARK    2  A    between atoms: C10_10  and  C14_14
REMARK                            x       y       z     vdW  Elec       q    Type
REMARK                         _______ _______ _______ _____ _____    ______ ____
ROOT
ATOM      1  C   UNL     1      14.359  62.731  23.425  0.00  0.00    +0.177 C 
ATOM      2  C   UNL     1      15.819  62.703  23.042  0.00  0.00    +0.215 C 
ATOM      3  N   UNL     1      16.658  61.825  23.661  0.00  0.00    -0.189 N 
ATOM      4  H   UNL     1      16.253  61.253  24.375  0.00  0.00    +0.246 HD
ATOM      5  C   UNL     1      18.016  61.634  23.412  0.00  0.00    +0.213 A 
ATOM      6  S   UNL     1      18.980  62.473  22.190  0.00  0.00    +0.031 S 
ATOM      7  C   UNL     1      20.388  61.529  22.680  0.00  0.00    +0.050 A 
ATOM      8  C   UNL     1      21.677  61.538  22.185  0.00  0.00    +0.013 A 
ATOM      9  C   UNL     1      22.637  60.694  22.718  0.00  0.00    -0.024 A 
ATOM     16  C   UNL     1      22.289  59.833  23.765  0.00  0.00    -0.010 A 
ATOM     17  C   UNL     1      21.009  59.816  24.263  0.00  0.00    -0.009 A 
ATOM     18  C   UNL     1      20.028  60.660  23.727  0.00  0.00    +0.009 A 
ATOM     19  N   UNL     1      18.741  60.778  24.069  0.00  0.00    -0.307 NA
ATOM     20  O   UNL     1      16.210  63.475  22.195  0.00  0.00    -0.379 OA
ENDROOT
BRANCH   9  10
ATOM     10  C   UNL     1      23.997  60.710  22.130  0.00  0.00    +0.002 A 
ATOM     11  C   UNL     1      25.102  60.166  22.774  0.00  0.00    +0.098 A 
ATOM     12  N   UNL     1      26.290  60.191  22.176  0.00  0.00    -0.298 NA
ATOM     13  C   UNL     1      26.515  60.691  20.966  0.00  0.00    +0.090 A 
ATOM     14  C   UNL     1      25.458  61.220  20.248  0.00  0.00    +0.035 A 
ATOM     15  C   UNL     1      24.182  61.229  20.823  0.00  0.00    +0.035 A 
ENDBRANCH   9  10
TORSDOF 1
