REMARK  Name = 5UQ0
REMARK  6 active torsions:
REMARK  status: ('A' for Active; 'I' for Inactive)
REMARK    1  A    between atoms: C_2  and  C_3
REMARK    2  A    between atoms: C_2  and  C_4
REMARK    3  A    between atoms: C_6  and  C_10
REMARK    4  A    between atoms: C_8  and  C_9
REMARK    5  A    between atoms: C_9  and  C_10
REMARK    6  A    between atoms: C_10  and  C_11
REMARK                            x       y       z     vdW  Elec       q    Type
REMARK                         _______ _______ _______ _____ _____    ______ ____
ROOT
ATOM      4  C   UNL     1       7.851   0.837  18.109  0.00  0.00    +0.099 C 
ENDROOT
BRANCH   4   3
ATOM      1  C   UNL     1       6.792  -1.484  20.674  0.00  0.00    +0.041 C 
ATOM      2  C   UNL     1       7.680  -0.970  19.590  0.00  0.00    +0.034 C 
ATOM      3  C   UNL     1       7.205   0.193  19.097  0.00  0.00    +0.119 C 
ATOM     12  O   UNL     1       5.983   0.599  19.743  0.00  0.00    -0.363 OA
ATOM     13  C   UNL     1       5.780  -0.373  20.817  0.00  0.00    +0.065 C 
ATOM     14  C   UNL     1       5.944   0.312  22.195  0.00  0.00    +0.041 C 
ATOM     15  C   UNL     1       4.369  -0.958  20.728  0.00  0.00    +0.041 C 
ENDBRANCH   4   3
BRANCH   4   5
ATOM      5  C   UNL     1       7.333   2.127  17.566  0.00  0.00    +0.221 C 
ATOM      6  N   UNL     1       6.111   2.490  18.013  0.00  0.00    -0.329 N 
ATOM      7  H   UNL     1       5.666   3.402  17.673  0.00  0.00    +0.145 HD
ATOM      8  H   UNL     1       5.588   1.866  18.707  0.00  0.00    +0.145 HD
ATOM      9  O   UNL     1       7.993   2.819  16.765  0.00  0.00    -0.275 OA
ENDBRANCH   4   5
BRANCH   4  10
ATOM     10  C   UNL     1       9.046   0.341  17.598  0.00  0.00    +0.012 C 
ATOM     11  C   UNL     1       9.528  -0.859  18.126  0.00  0.00    +0.005 C 
ENDBRANCH   4  10
TORSDOF 3
