REMARK  Name = 2hxq_ligand
REMARK  5 active torsions:
REMARK  status: ('A' for Active; 'I' for Inactive)
REMARK    1  A    between atoms: C13_9  and  C16_11
REMARK    2  A    between atoms: C26_18  and  C31_20
REMARK    3  A    between atoms: C31_20  and  N32_21
REMARK    4  A    between atoms: C37_24  and  C48_27
REMARK    5  A    between atoms: C48_27  and  N50_28
REMARK                            x       y       z     vdW  Elec       q    Type
REMARK                         _______ _______ _______ _____ _____    ______ ____
ROOT
ATOM      4  C   UNL     1      18.338  -1.400   9.411  0.00  0.00    +0.065 A 
ATOM      5  C   UNL     1      19.149  -2.468   9.866  0.00  0.00    -0.029 A 
ATOM      6  C   UNL     1      20.448  -2.304   9.366  0.00  0.00    -0.033 A 
ATOM      7  C   UNL     1      21.670  -3.064   9.457  0.00  0.00    -0.024 A 
ATOM      8  C   UNL     1      22.862  -2.550   8.794  0.00  0.00    -0.016 A 
ATOM     22  C   UNL     1      22.872  -1.280   8.041  0.00  0.00    -0.020 A 
ATOM     23  C   UNL     1      21.622  -0.515   7.961  0.00  0.00    +0.005 A 
ATOM     24  C   UNL     1      20.442  -1.046   8.626  0.00  0.00    +0.057 A 
ATOM     25  N   UNL     1      19.162  -0.523   8.681  0.00  0.00    -0.279 N 
ATOM     26  H   UNL     1      18.861   0.365   8.256  0.00  0.00    +0.221 HD
ENDROOT
BRANCH   4   3
ATOM      1  C   UNL     1      14.808  -1.750  10.844  0.00  0.00    +0.011 A 
ATOM      2  C   UNL     1      16.201  -2.040  10.516  0.00  0.00    +0.035 A 
ATOM      3  C   UNL     1      16.885  -1.213   9.695  0.00  0.00    +0.075 A 
ATOM     27  C   UNL     1      16.149  -0.056   9.086  0.00  0.00    +0.222 A 
ATOM     28  O   UNL     1      16.775   0.652   8.304  0.00  0.00    -0.397 OA
ATOM     29  N   UNL     1      14.854   0.186   9.396  0.00  0.00    -0.227 N 
ATOM     30  H   UNL     1      14.400   0.974   8.980  0.00  0.00    +0.238 HD
ATOM     31  C   UNL     1      14.143  -0.603  10.254  0.00  0.00    +0.089 A 
ATOM     32  C   UNL     1      12.800  -0.221  10.616  0.00  0.00    +0.020 A 
ATOM     33  C   UNL     1      12.132  -1.035  11.615  0.00  0.00    -0.010 A 
ATOM     34  C   UNL     1      12.772  -2.219  12.180  0.00  0.00    -0.020 A 
ATOM     35  C   UNL     1      14.131  -2.590  11.812  0.00  0.00    -0.000 A 
ENDBRANCH   4   3
BRANCH   8   9
ATOM      9  C   UNL     1      24.075  -3.447   8.837  0.00  0.00    +0.187 C 
BRANCH   9  10
ATOM     10  N   UNL     1      24.080  -4.269   7.604  0.00  0.00    +0.246 N 
ATOM     11  H   UNL     1      23.272  -4.000   7.064  0.00  0.00    +0.205 HD
ATOM     12  C   UNL     1      24.010  -5.747   7.784  0.00  0.00    +0.133 C 
ATOM     13  C   UNL     1      23.794  -6.383   6.410  0.00  0.00    +0.059 C 
ATOM     14  C   UNL     1      24.964  -6.013   5.477  0.00  0.00    +0.044 C 
ATOM     20  C   UNL     1      25.112  -4.500   5.437  0.00  0.00    +0.059 C 
ATOM     21  C   UNL     1      25.294  -3.933   6.836  0.00  0.00    +0.133 C 
BRANCH  14  15
ATOM     15  C   UNL     1      24.710  -6.523   4.034  0.00  0.00    +0.131 C 
BRANCH  15  16
ATOM     16  N   UNL     1      25.824  -6.095   3.162  0.00  0.00    +0.219 N 
ATOM     17  H   UNL     1      25.881  -5.089   3.159  0.00  0.00    +0.199 HD
ATOM     18  H   UNL     1      26.689  -6.480   3.509  0.00  0.00    +0.199 HD
ATOM     19  H   UNL     1      25.662  -6.425   2.223  0.00  0.00    +0.199 HD
ENDBRANCH  15  16
ENDBRANCH  14  15
ENDBRANCH   9  10
ENDBRANCH   8   9
TORSDOF 5
