REMARK  Name = 6JF
REMARK  5 active torsions:
REMARK  status: ('A' for Active; 'I' for Inactive)
REMARK    1  A    between atoms: C14_3  and  C13_13
REMARK    2  A    between atoms: C14_3  and  N18_14
REMARK    3  A    between atoms: C34_20  and  C35_21
REMARK    4  A    between atoms: C40_25  and  C45_28
REMARK    5  A    between atoms: C50_31  and  C51_32
REMARK                            x       y       z     vdW  Elec       q    Type
REMARK                         _______ _______ _______ _____ _____    ______ ____
ROOT
ATOM      8  C   UNL     1     -10.864 -13.615   4.560  0.00  0.00    +0.025 A 
ATOM      9  C   UNL     1     -11.441 -13.722   5.824  0.00  0.00    +0.099 A 
ATOM     10  N   UNL     1     -12.666 -14.224   6.090  0.00  0.00    -0.242 NA
ATOM     11  C   UNL     1     -13.361 -14.664   5.010  0.00  0.00    +0.098 A 
ATOM     12  C   UNL     1     -14.650 -15.261   4.937  0.00  0.00    +0.036 A 
ATOM     22  C   UNL     1     -14.868 -15.508   3.591  0.00  0.00    +0.078 A 
ATOM     23  N   UNL     1     -13.772 -15.128   2.861  0.00  0.00    -0.321 N 
ATOM     32  C   UNL     1     -12.844 -14.591   3.713  0.00  0.00    +0.078 A 
ATOM     33  C   UNL     1     -11.585 -14.065   3.465  0.00  0.00    +0.020 A 
ENDROOT
BRANCH   8   7
ATOM      1  C   UNL     1      -9.021 -11.963   4.926  0.00  0.00    +0.154 A 
ATOM      2  C   UNL     1      -9.527 -10.982   5.904  0.00  0.00    +0.075 C 
ATOM      3  O   UNL     1      -7.753 -11.770   4.469  0.00  0.00    -0.358 OA
ATOM      4  N   UNL     1      -7.430 -12.773   3.568  0.00  0.00    -0.082 NA
ATOM      5  C   UNL     1      -8.505 -13.558   3.489  0.00  0.00    +0.101 A 
ATOM      6  C   UNL     1      -8.479 -14.739   2.586  0.00  0.00    +0.056 C 
ATOM      7  C   UNL     1      -9.545 -13.085   4.330  0.00  0.00    +0.051 A 
ENDBRANCH   8   7
BRANCH  12  13
ATOM     13  C   UNL     1     -15.661 -15.566   5.947  0.00  0.00    +0.003 A 
ATOM     14  C   UNL     1     -15.754 -14.825   7.133  0.00  0.00    +0.000 A 
ATOM     15  C   UNL     1     -16.751 -15.101   8.078  0.00  0.00    +0.007 A 
ATOM     16  C   UNL     1     -17.677 -16.132   7.868  0.00  0.00    +0.080 A 
ATOM     20  C   UNL     1     -17.582 -16.862   6.680  0.00  0.00    +0.007 A 
ATOM     21  C   UNL     1     -16.593 -16.586   5.739  0.00  0.00    +0.000 A 
BRANCH  16  17
ATOM     17  C   UNL     1     -18.758 -16.444   8.871  0.00  0.00    +0.388 C 
ATOM     18  O   UNL     1     -18.799 -15.729   9.913  0.00  0.00    -0.241 OA
ATOM     19  O   UNL     1     -19.552 -17.402   8.614  0.00  0.00    -0.241 OA
ENDBRANCH  16  17
ENDBRANCH  12  13
BRANCH  23  24
ATOM     24  C   UNL     1     -13.665 -15.201   1.402  0.00  0.00    +0.126 C 
ATOM     31  C   UNL     1     -14.671 -16.189   0.806  0.00  0.00    +0.031 C 
BRANCH  24  25
ATOM     25  C   UNL     1     -13.938 -13.826   0.818  0.00  0.00    +0.080 A 
ATOM     26  C   UNL     1     -14.897 -12.990   1.394  0.00  0.00    +0.017 A 
ATOM     27  C   UNL     1     -15.170 -11.765   0.794  0.00  0.00    +0.003 A 
ATOM     28  C   UNL     1     -14.491 -11.398  -0.357  0.00  0.00    +0.021 A 
ATOM     29  C   UNL     1     -13.554 -12.281  -0.859  0.00  0.00    +0.099 A 
ATOM     30  N   UNL     1     -13.268 -13.482  -0.306  0.00  0.00    -0.246 NA
ENDBRANCH  24  25
ENDBRANCH  23  24
TORSDOF 5
