REMARK  Name = 3v5j_ligand
REMARK  11 active torsions:
REMARK  status: ('A' for Active; 'I' for Inactive)
REMARK    1  A    between atoms: NAM_6  and  CAL_7
REMARK    2  A    between atoms: CAL_7  and  CAK_8
REMARK    3  A    between atoms: CAK_8  and  OAJ_9
REMARK    4  A    between atoms: OAJ_9  and  CAD_10
REMARK    5  A    between atoms: CAB_12  and  CAS_13
REMARK    6  A    between atoms: CAS_13  and  CBB_14
REMARK    7  A    between atoms: CAS_13  and  CBC_16
REMARK    8  A    between atoms: CAS_13  and  OBF_18
REMARK    9  A    between atoms: CBB_14  and  CBD_15
REMARK   10  A    between atoms: CBC_16  and  CBE_17
REMARK   11  A    between atoms: CAH_24  and  CAT_25
REMARK                            x       y       z     vdW  Elec       q    Type
REMARK                         _______ _______ _______ _____ _____    ______ ____
ROOT
ATOM      6  C   UNL     1     -53.200 -17.941  29.167  0.00  0.00    +0.104 A 
ATOM      7  C   UNL     1     -52.711 -16.909  28.361  0.00  0.00    +0.042 A 
ATOM      8  C   UNL     1     -52.792 -16.661  27.056  0.00  0.00    +0.023 A 
ATOM      9  C   UNL     1     -52.141 -15.523  26.797  0.00  0.00    +0.113 A 
ATOM     19  N   UNL     1     -51.621 -15.064  27.936  0.00  0.00    -0.258 N 
ATOM     20  H   UNL     1     -51.070 -14.211  28.035  0.00  0.00    +0.228 HD
ATOM     21  C   UNL     1     -51.937 -15.897  28.921  0.00  0.00    +0.093 A 
ATOM     22  C   UNL     1     -51.661 -15.894  30.291  0.00  0.00    +0.043 A 
ATOM     23  C   UNL     1     -52.147 -16.922  31.106  0.00  0.00    -0.074 A 
ATOM     31  C   UNL     1     -52.914 -17.944  30.536  0.00  0.00    +0.010 A 
ENDROOT
BRANCH   9  10
ATOM     10  C   UNL     1     -52.001 -14.899  25.557  0.00  0.00    +0.145 A 
ATOM     11  N   UNL     1     -51.278 -13.823  25.254  0.00  0.00    -0.210 N 
ATOM     12  H   UNL     1     -50.701 -13.305  25.916  0.00  0.00    +0.256 HD
ATOM     13  N   UNL     1     -51.404 -13.540  24.056  0.00  0.00    -0.210 NA
ATOM     14  C   UNL     1     -52.217 -14.390  23.420  0.00  0.00    +0.048 A 
ATOM     15  C   UNL     1     -52.753 -14.628  22.200  0.00  0.00    -0.011 A 
ATOM     16  C   UNL     1     -53.587 -15.674  22.106  0.00  0.00    +0.070 A 
ATOM     17  S   UNL     1     -53.686 -16.368  23.645  0.00  0.00    -0.049 S 
ATOM     18  C   UNL     1     -52.643 -15.288  24.395  0.00  0.00    +0.078 A 
ENDBRANCH   9  10
BRANCH   6   5
ATOM      5  O   UNL     1     -53.905 -18.962  28.603  0.00  0.00    -0.317 OA
BRANCH   5   4
ATOM      4  C   UNL     1     -55.225 -19.110  29.154  0.00  0.00    +0.172 C 
BRANCH   4   3
ATOM      3  C   UNL     1     -55.844 -20.382  28.566  0.00  0.00    -0.075 C 
BRANCH   3   2
ATOM      1  C   UNL     1     -57.620 -21.193  27.161  0.00  0.00    -0.081 C 
ATOM      2  N   UNL     1     -56.756 -20.036  27.463  0.00  0.00    +0.408 NA
ATOM     32  C   UNL     1     -55.985 -19.641  26.269  0.00  0.00    -0.081 C 
ATOM     33  C   UNL     1     -56.949 -19.304  25.122  0.00  0.00    +0.137 C 
ATOM     34  O   UNL     1     -57.783 -20.450  24.836  0.00  0.00    -0.384 OA
ATOM     35  C   UNL     1     -58.555 -20.847  25.993  0.00  0.00    +0.137 C 
ENDBRANCH   3   2
ENDBRANCH   4   3
ENDBRANCH   5   4
ENDBRANCH   6   5
BRANCH  23  24
ATOM     24  C   UNL     1     -51.869 -16.903  32.622  0.00  0.00    +0.017 C 
BRANCH  24  25
ATOM     25  O   UNL     1     -52.269 -18.141  33.228  0.00  0.00    -0.451 OA
ATOM     26  H   UNL     1     -51.762 -18.861  32.846  0.00  0.00    +0.187 HD
ENDBRANCH  24  25
BRANCH  24  27
ATOM     27  C   UNL     1     -50.375 -16.665  32.891  0.00  0.00    -0.045 C 
ATOM     28  C   UNL     1     -49.515 -17.834  32.402  0.00  0.00    -0.010 C 
ENDBRANCH  24  27
BRANCH  24  29
ATOM     29  C   UNL     1     -52.683 -15.758  33.237  0.00  0.00    -0.045 C 
ATOM     30  C   UNL     1     -52.569 -15.722  34.764  0.00  0.00    -0.010 C 
ENDBRANCH  24  29
ENDBRANCH  23  24
TORSDOF 9
