REMARK  Name = 5BVO
REMARK  6 active torsions:
REMARK  status: ('A' for Active; 'I' for Inactive)
REMARK    1  A    between atoms: C_1  and  C_2
REMARK    2  A    between atoms: C_2  and  N_3
REMARK    3  A    between atoms: C_2  and  C_10
REMARK    4  A    between atoms: C_12  and  C_25
REMARK    5  A    between atoms: C_13  and  C_14
REMARK    6  A    between atoms: C_26  and  N_27
REMARK                            x       y       z     vdW  Elec       q    Type
REMARK                         _______ _______ _______ _____ _____    ______ ____
ROOT
ATOM      3  C   UNL     1      23.255  37.090  37.811  0.00  0.00    -0.026 A 
ATOM      4  C   UNL     1      22.136  37.826  37.457  0.00  0.00    +0.029 A 
ATOM      5  C   UNL     1      22.053  39.188  37.692  0.00  0.00    +0.037 A 
ATOM     19  C   UNL     1      23.120  39.851  38.302  0.00  0.00    -0.029 A 
ATOM     20  C   UNL     1      24.249  39.114  38.659  0.00  0.00    +0.005 A 
ATOM     21  C   UNL     1      23.086  41.330  38.582  0.00  0.00    +0.045 C 
ATOM     22  C   UNL     1      24.315  37.751  38.417  0.00  0.00    +0.006 A 
ENDROOT
BRANCH   5   6
ATOM      6  N   UNL     1      20.881  39.877  37.306  0.00  0.00    -0.280 N 
ATOM      7  H   UNL     1      20.981  40.586  36.813  0.00  0.00    +0.155 HD
ATOM      8  C   UNL     1      19.624  39.504  37.665  0.00  0.00    +0.267 C 
ATOM      9  O   UNL     1      19.426  38.620  38.498  0.00  0.00    -0.268 OA
BRANCH   8  10
ATOM     10  C   UNL     1      18.497  40.203  37.015  0.00  0.00    +0.129 A 
ATOM     11  N   UNL     1      17.184  40.180  37.490  0.00  0.00    -0.295 N 
ATOM     12  C   UNL     1      16.600  39.572  38.582  0.00  0.00    +0.093 A 
ATOM     13  C   UNL     1      15.262  39.715  38.821  0.00  0.00    +0.018 A 
ATOM     14  C   UNL     1      14.484  40.470  37.970  0.00  0.00    +0.005 A 
ATOM     15  C   UNL     1      15.054  41.089  36.867  0.00  0.00    +0.047 A 
ATOM     16  C   UNL     1      16.432  40.950  36.609  0.00  0.00    +0.138 A 
ATOM     17  N   UNL     1      17.203  41.435  35.635  0.00  0.00    -0.235 NA
ATOM     18  C   UNL     1      18.476  40.974  35.886  0.00  0.00    +0.144 A 
ENDBRANCH   8  10
ENDBRANCH   5   6
BRANCH   3   2
ATOM      1  C   UNL     1      22.263  34.862  38.399  0.00  0.00    +0.033 C 
ATOM      2  C   UNL     1      23.259  35.601  37.515  0.00  0.00    +0.102 C 
BRANCH   2  23
ATOM     23  N   UNL     1      24.561  34.950  37.661  0.00  0.00    -0.292 N 
ATOM     24  H   UNL     1      25.016  35.068  38.392  0.00  0.00    +0.151 HD
ATOM     25  C   UNL     1      25.015  34.014  36.781  0.00  0.00    +0.289 A 
ATOM     26  O   UNL     1      26.186  33.363  37.068  0.00  0.00    -0.424 OA
ATOM     27  C   UNL     1      26.342  32.521  36.012  0.00  0.00    +0.157 A 
ATOM     28  C   UNL     1      27.380  31.626  35.806  0.00  0.00    +0.051 A 
ATOM     29  C   UNL     1      27.358  30.848  34.654  0.00  0.00    +0.042 A 
ATOM     30  C   UNL     1      26.318  30.990  33.764  0.00  0.00    +0.126 A 
ATOM     31  F   UNL     1      26.312  30.220  32.641  0.00  0.00    -0.205 F 
ATOM     32  C   UNL     1      25.284  31.874  33.958  0.00  0.00    +0.070 A 
ATOM     33  C   UNL     1      25.311  32.664  35.133  0.00  0.00    +0.114 A 
ATOM     34  N   UNL     1      24.466  33.627  35.640  0.00  0.00    -0.195 NA
ENDBRANCH   2  23
ENDBRANCH   3   2
TORSDOF 4
