REMARK  Name = 4gfm_ligand
REMARK  2 active torsions:
REMARK  status: ('A' for Active; 'I' for Inactive)
REMARK    1  A    between atoms: C4_1  and  C7_5
REMARK    2  A    between atoms: C8_6  and  N1_10
REMARK                            x       y       z     vdW  Elec       q    Type
REMARK                         _______ _______ _______ _____ _____    ______ ____
ROOT
ATOM      7  C   UNL     1      31.935 -13.170   3.513  0.00  0.00    +0.254 C 
ATOM      8  O   UNL     1      31.323 -12.128   3.749  0.00  0.00    -0.362 OA
ATOM      9  N   UNL     1      33.143 -13.171   2.928  0.00  0.00    -0.198 N 
ATOM     10  H   UNL     1      33.581 -14.065   2.838  0.00  0.00    +0.253 HD
ENDROOT
BRANCH   7   1
ATOM      1  C   UNL     1      31.372 -14.538   3.879  0.00  0.00    +0.088 A 
ATOM      2  C   UNL     1      31.191 -14.959   5.182  0.00  0.00    +0.062 A 
ATOM      3  C   UNL     1      30.679 -16.207   5.528  0.00  0.00    +0.022 A 
ATOM      4  C   UNL     1      30.339 -17.096   4.510  0.00  0.00    +0.009 A 
ATOM      5  C   UNL     1      30.515 -16.703   3.185  0.00  0.00    +0.022 A 
ATOM      6 CL   UNL     1      31.612 -13.831   6.455  0.00  0.00    -0.065 Cl
ATOM     18  C   UNL     1      31.027 -15.437   2.882  0.00  0.00    +0.062 A 
ATOM     19 CL   UNL     1      31.231 -14.959   1.176  0.00  0.00    -0.065 Cl
ENDBRANCH   7   1
BRANCH   9  11
ATOM     11  C   UNL     1      33.877 -12.074   2.423  0.00  0.00    +0.111 C 
ATOM     12  C   UNL     1      33.484 -10.742   2.554  0.00  0.00    +0.264 C 
ATOM     13  C   UNL     1      34.266  -9.744   1.968  0.00  0.00    +0.160 C 
ATOM     14  O   UNL     1      33.932  -8.549   2.090  0.00  0.00    -0.399 OA
ATOM     15  N   UNL     1      35.384 -10.048   1.259  0.00  0.00    -0.307 NA
ATOM     16  C   UNL     1      35.787 -11.314   1.118  0.00  0.00    +0.074 C 
ATOM     17  C   UNL     1      35.035 -12.352   1.683  0.00  0.00    +0.015 C 
ENDBRANCH   9  11
TORSDOF 2
