REMARK  Name = 5AK0
REMARK  7 active torsions:
REMARK  status: ('A' for Active; 'I' for Inactive)
REMARK    1  A    between atoms: C_2  and  C_3
REMARK    2  A    between atoms: N_8  and  C_9
REMARK    3  A    between atoms: C_14  and  O_15
REMARK    4  A    between atoms: O_15  and  C_16
REMARK    5  A    between atoms: N_20  and  C_21
REMARK    6  A    between atoms: C_24  and  C_26
REMARK    7  A    between atoms: N_28  and  C_29
REMARK                            x       y       z     vdW  Elec       q    Type
REMARK                         _______ _______ _______ _____ _____    ______ ____
ROOT
ATOM      9  O   UNL     1     -42.132 -37.360 -13.425  0.00  0.00    -0.456 OA
ENDROOT
BRANCH   9  10
ATOM     10  C   UNL     1     -42.542 -38.668 -13.161  0.00  0.00    +0.129 A 
ATOM     11  C   UNL     1     -41.596 -39.634 -12.831  0.00  0.00    +0.057 A 
ATOM     12  C   UNL     1     -42.025 -40.940 -12.571  0.00  0.00    +0.011 A 
ATOM     13  C   UNL     1     -41.350 -42.167 -12.211  0.00  0.00    +0.010 A 
ATOM     20  C   UNL     1     -42.323 -43.127 -12.142  0.00  0.00    +0.095 A 
ATOM     21  N   UNL     1     -43.549 -42.587 -12.418  0.00  0.00    -0.349 N 
ATOM     22  C   UNL     1     -44.820 -43.302 -12.385  0.00  0.00    +0.149 C 
ATOM     23  C   UNL     1     -43.390 -41.244 -12.684  0.00  0.00    +0.050 A 
ATOM     24  C   UNL     1     -44.321 -40.284 -13.075  0.00  0.00    +0.030 A 
ATOM     25  C   UNL     1     -43.889 -38.986 -13.300  0.00  0.00    +0.048 A 
BRANCH  13  14
ATOM     14  C   UNL     1     -39.910 -42.385 -12.019  0.00  0.00    +0.022 A 
ATOM     15  C   UNL     1     -39.189 -43.555 -12.328  0.00  0.00    +0.143 A 
ATOM     16  N   UNL     1     -37.914 -43.407 -12.015  0.00  0.00    -0.179 NA
ATOM     17  N   UNL     1     -37.805 -42.150 -11.517  0.00  0.00    -0.274 N 
ATOM     18  C   UNL     1     -36.509 -41.654 -11.070  0.00  0.00    +0.172 C 
ATOM     19  C   UNL     1     -38.980 -41.513 -11.486  0.00  0.00    +0.116 A 
ENDBRANCH  13  14
ENDBRANCH   9  10
BRANCH   9   8
ATOM      5  C   UNL     1     -41.411 -35.997 -17.311  0.00  0.00    +0.034 A 
ATOM      6  C   UNL     1     -41.673 -35.106 -16.273  0.00  0.00    +0.027 A 
ATOM      7  C   UNL     1     -41.927 -35.574 -14.992  0.00  0.00    +0.048 A 
ATOM      8  C   UNL     1     -41.904 -36.939 -14.738  0.00  0.00    +0.129 A 
ATOM     26  C   UNL     1     -41.618 -37.838 -15.762  0.00  0.00    +0.048 A 
ATOM     27  C   UNL     1     -41.402 -37.368 -17.048  0.00  0.00    +0.027 A 
BRANCH   5   3
ATOM      1  O   UNL     1     -40.696 -37.322 -19.839  0.00  0.00    -0.274 OA
ATOM      2  C   UNL     1     -40.838 -36.108 -19.746  0.00  0.00    +0.234 C 
ATOM      3  N   UNL     1     -41.143 -35.456 -18.598  0.00  0.00    -0.284 N 
ATOM      4  H   UNL     1     -41.188 -34.389 -18.670  0.00  0.00    +0.155 HD
BRANCH   2  28
ATOM     28  C   UNL     1     -40.586 -35.209 -20.955  0.00  0.00    +0.141 C 
ATOM     29  C   UNL     1     -41.864 -35.015 -21.787  0.00  0.00    +0.029 C 
ATOM     30  C   UNL     1     -41.621 -35.795 -23.087  0.00  0.00    +0.017 C 
ATOM     31  C   UNL     1     -40.112 -35.771 -23.241  0.00  0.00    +0.081 C 
ATOM     32  N   UNL     1     -39.599 -35.824 -21.861  0.00  0.00    -0.306 NA
ATOM     33  H   UNL     1     -39.439 -36.843 -21.577  0.00  0.00    +0.123 HD
ENDBRANCH   2  28
ENDBRANCH   5   3
ENDBRANCH   9   8
TORSDOF 5
