REMARK  Name = 4qyg_ligand
REMARK  4 active torsions:
REMARK  status: ('A' for Active; 'I' for Inactive)
REMARK    1  A    between atoms: C22_2  and  C9_4
REMARK    2  A    between atoms: C4_14  and  C11_17
REMARK    3  A    between atoms: C14_20  and  N4_23
REMARK    4  A    between atoms: N5_26  and  C21_27
REMARK                            x       y       z     vdW  Elec       q    Type
REMARK                         _______ _______ _______ _____ _____    ______ ____
ROOT
ATOM      3  CA  UNL     1       7.588   6.869  16.292  0.00  0.00    +0.068 A 
ATOM      4  C   UNL     1       6.250   6.761  16.713  0.00  0.00    +0.046 A 
ATOM      5  C   UNL     1       5.810   7.657  17.687  0.00  0.00    +0.026 A 
ATOM      6  C   UNL     1       4.576   7.799  18.285  0.00  0.00    +0.033 A 
ATOM      7  C   UNL     1       3.361   7.122  18.127  0.00  0.00    +0.030 A 
ATOM      8  C   UNL     1       2.268   7.557  18.913  0.00  0.00    -0.009 A 
ATOM     23  C   UNL     1       2.464   8.642  19.785  0.00  0.00    +0.083 A 
ATOM     24  N   UNL     1       3.646   9.266  19.921  0.00  0.00    -0.280 NA
ATOM     25  C   UNL     1       4.678   8.842  19.167  0.00  0.00    +0.143 A 
ATOM     26  N   UNL     1       5.940   9.331  19.115  0.00  0.00    -0.252 N 
ATOM     27  H   UNL     1       6.297  10.120  19.672  0.00  0.00    +0.223 HD
ATOM     28  C   UNL     1       6.664   8.612  18.206  0.00  0.00    +0.100 A 
ATOM     29  C   UNL     1       7.975   8.675  17.758  0.00  0.00    +0.114 A 
ATOM     30  N   UNL     1       8.408   7.809  16.821  0.00  0.00    -0.295 NA
ENDROOT
BRANCH   8   9
ATOM      9  C   UNL     1       0.902   6.930  18.824  0.00  0.00    -0.030 A 
ATOM     10  C   UNL     1      -0.042   7.068  19.848  0.00  0.00    -0.007 A 
ATOM     11  C   UNL     1      -1.312   6.504  19.728  0.00  0.00    +0.009 A 
ATOM     12  C   UNL     1      -1.692   5.791  18.591  0.00  0.00    +0.042 A 
ATOM     21  C   UNL     1      -0.758   5.674  17.555  0.00  0.00    +0.009 A 
ATOM     22  C   UNL     1       0.510   6.238  17.675  0.00  0.00    -0.007 A 
BRANCH  12  13
ATOM     13  N   UNL     1      -2.937   5.223  18.474  0.00  0.00    -0.298 N 
ATOM     14  C   UNL     1      -2.984   3.805  18.114  0.00  0.00    +0.181 C 
ATOM     15  C   UNL     1      -4.373   3.506  17.579  0.00  0.00    +0.155 C 
ATOM     16  N   UNL     1      -5.362   3.817  18.623  0.00  0.00    +0.236 N 
ATOM     17  H   UNL     1      -5.093   3.360  19.480  0.00  0.00    +0.203 HD
ATOM     18  C   UNL     1      -6.699   3.332  18.231  0.00  0.00    +0.190 C 
ATOM     19  C   UNL     1      -5.368   5.272  18.837  0.00  0.00    +0.155 C 
ATOM     20  C   UNL     1      -4.004   5.743  19.338  0.00  0.00    +0.181 C 
ENDBRANCH  12  13
ENDBRANCH   8   9
BRANCH   3   2
ATOM      1  O   UNL     1       7.434   5.083  14.735  0.00  0.00    -0.561 OA
ATOM      2  C   UNL     1       8.159   5.965  15.248  0.00  0.00    +0.072 C 
ATOM     31  OXT UNL     1       9.360   6.104  14.928  0.00  0.00    -0.561 OA
ENDBRANCH   3   2
TORSDOF 3
