REMARK  Name = 5HES
REMARK  8 active torsions:
REMARK  status: ('A' for Active; 'I' for Inactive)
REMARK    1  A    between atoms: C_3  and  C_13
REMARK    2  A    between atoms: C_3  and  C_17
REMARK    3  A    between atoms: C_5  and  N_21
REMARK    4  A    between atoms: C_8  and  C_16
REMARK    5  A    between atoms: N_21  and  S_22
REMARK    6  A    between atoms: S_22  and  C_25
REMARK    7  A    between atoms: C_25  and  C_26
REMARK    8  A    between atoms: C_26  and  C_27
REMARK                            x       y       z     vdW  Elec       q    Type
REMARK                         _______ _______ _______ _____ _____    ______ ____
ROOT
ATOM     15  C   UNL     1      26.312  69.916   1.960  0.00  0.00    +0.201 C 
ATOM     16  O   UNL     1      26.396  69.040   1.155  0.00  0.00    -0.286 OA
ENDROOT
BRANCH  15  14
ATOM      7  C   UNL     1      27.973  72.517  -1.618  0.00  0.00    +0.001 A 
ATOM      8  C   UNL     1      27.466  71.553  -0.738  0.00  0.00    +0.022 A 
ATOM      9  C   UNL     1      27.247  71.928   0.581  0.00  0.00    +0.032 A 
ATOM     10  C   UNL     1      27.523  73.256   0.923  0.00  0.00    +0.161 A 
ATOM     11  N   UNL     1      27.282  73.399   2.255  0.00  0.00    -0.235 NA
ATOM     12  C   UNL     1      26.886  72.205   2.777  0.00  0.00    +0.125 A 
ATOM     13  N   UNL     1      27.976  74.203   0.099  0.00  0.00    -0.235 NA
ATOM     14  C   UNL     1      26.822  71.261   1.791  0.00  0.00    +0.051 A 
ATOM     33  C   UNL     1      28.202  73.803  -1.144  0.00  0.00    +0.121 A 
BRANCH   7   5
ATOM      1  C   UNL     1      28.569  71.527  -5.708  0.00  0.00    +0.041 A 
ATOM      2 CL   UNL     1      28.698  71.075  -7.406  0.00  0.00    -0.084 Cl
ATOM      3  C   UNL     1      28.089  72.772  -5.379  0.00  0.00    +0.020 A 
ATOM      4  C   UNL     1      27.935  73.103  -4.045  0.00  0.00    +0.010 A 
ATOM      5  C   UNL     1      28.235  72.189  -3.031  0.00  0.00    -0.016 A 
ATOM      6  C   UNL     1      28.726  70.936  -3.404  0.00  0.00    +0.010 A 
ATOM     34  C   UNL     1      28.914  70.610  -4.735  0.00  0.00    +0.020 A 
ENDBRANCH   7   5
ENDBRANCH  15  14
BRANCH  15  17
ATOM     17  C   UNL     1      25.606  69.539   3.237  0.00  0.00    +0.094 A 
ATOM     18  C   UNL     1      24.367  70.040   3.570  0.00  0.00    +0.137 A 
ATOM     19  F   UNL     1      23.797  70.903   2.712  0.00  0.00    -0.205 F 
ATOM     20  C   UNL     1      23.712  69.762   4.758  0.00  0.00    +0.041 A 
ATOM     21  C   UNL     1      24.323  68.948   5.684  0.00  0.00    +0.030 A 
ATOM     22  C   UNL     1      25.587  68.459   5.395  0.00  0.00    +0.084 A 
ATOM     31  C   UNL     1      26.188  68.728   4.168  0.00  0.00    +0.159 A 
ATOM     32  F   UNL     1      27.362  68.142   3.894  0.00  0.00    -0.203 F 
BRANCH  22  23
ATOM     23  N   UNL     1      26.358  67.726   6.329  0.00  0.00    -0.218 N 
ATOM     24  H   UNL     1      27.287  68.255   6.373  0.00  0.00    +0.173 HD
BRANCH  23  25
ATOM     25  S   UNL     1      26.045  67.355   7.861  0.00  0.00    +0.043 S 
ATOM     29  O   UNL     1      24.751  66.769   7.924  0.00  0.00    -0.155 OA
ATOM     30  O   UNL     1      27.154  66.622   8.317  0.00  0.00    -0.155 OA
BRANCH  25  26
ATOM     26  C   UNL     1      25.948  68.948   8.625  0.00  0.00    +0.188 C 
BRANCH  26  27
ATOM     27  C   UNL     1      27.148  69.674   8.850  0.00  0.00    +0.021 C 
ATOM     28  C   UNL     1      26.854  71.022   9.528  0.00  0.00    +0.005 C 
ENDBRANCH  26  27
ENDBRANCH  25  26
ENDBRANCH  23  25
ENDBRANCH  22  23
ENDBRANCH  15  17
TORSDOF 7
