REMARK  Name = 3QL8
REMARK  2 active torsions:
REMARK  status: ('A' for Active; 'I' for Inactive)
REMARK    1  A    between atoms: C_6  and  C_15
REMARK    2  A    between atoms: C_9  and  O_16
REMARK                            x       y       z     vdW  Elec       q    Type
REMARK                         _______ _______ _______ _____ _____    ______ ____
ROOT
ATOM      1  N   UNL     1      91.745  80.241 -46.838  0.00  0.00    -0.218 NA
ATOM      2  C   UNL     1      90.798  80.515 -45.908  0.00  0.00    +0.201 A 
ATOM      3  N   UNL     1      89.763  81.368 -46.055  0.00  0.00    -0.319 N 
ATOM      4  H   UNL     1      89.039  81.544 -45.287  0.00  0.00    +0.169 HD
ATOM      5  C   UNL     1      89.723  81.978 -47.257  0.00  0.00    +0.193 A 
ATOM      6  N   UNL     1      88.772  82.793 -47.457  0.00  0.00    -0.329 N 
ATOM      7  H   UNL     1      88.050  82.972 -46.688  0.00  0.00    +0.145 HD
ATOM      8  H   UNL     1      88.692  83.302 -48.395  0.00  0.00    +0.145 HD
ATOM      9  N   UNL     1      90.593  81.803 -48.267  0.00  0.00    -0.197 NA
ATOM     10  C   UNL     1      91.592  80.919 -48.008  0.00  0.00    +0.164 A 
ATOM     11  C   UNL     1      92.508  80.676 -49.011  0.00  0.00    +0.039 C 
ATOM     12  C   UNL     1      93.602  79.770 -48.784  0.00  0.00    +0.066 C 
ATOM     13  C   UNL     1      94.542  79.501 -49.818  0.00  0.00    +0.084 C 
ATOM     16  C   UNL     1      94.405  80.129 -51.087  0.00  0.00    +0.054 C 
ATOM     17  C   UNL     1      93.331  81.027 -51.328  0.00  0.00    +0.020 C 
ATOM     18  C   UNL     1      92.383  81.308 -50.309  0.00  0.00    +0.120 C 
ENDROOT
BRANCH  13  14
ATOM     14  C   UNL     1      95.539  78.663 -49.610  0.00  0.00    +0.071 C 
ATOM     15  N   UNL     1      96.410  77.914 -49.441  0.00  0.00    -0.196 NA
ENDBRANCH  13  14
BRANCH  18  19
ATOM     19  O   UNL     1      91.358  82.170 -50.575  0.00  0.00    -0.507 OA
ATOM     20  H   UNL     1      91.749  83.109 -50.836  0.00  0.00    +0.292 HD
ENDBRANCH  18  19
TORSDOF 2
