REMARK  Name = 4FZF
REMARK  6 active torsions:
REMARK  status: ('A' for Active; 'I' for Inactive)
REMARK    1  A    between atoms: C_8  and  N_9
REMARK    2  A    between atoms: N_9  and  C_10
REMARK    3  A    between atoms: C_10  and  N_12
REMARK    4  A    between atoms: N_18  and  C_19
REMARK    5  A    between atoms: C_24  and  S_25
REMARK    6  A    between atoms: S_25  and  N_28
REMARK                            x       y       z     vdW  Elec       q    Type
REMARK                         _______ _______ _______ _____ _____    ______ ____
ROOT
ATOM      7  N   UNL     1      35.870-105.644  -4.794  0.00  0.00    -0.177 N 
ATOM      8  C   UNL     1      34.632-105.183  -4.620  0.00  0.00    +0.219 A 
ATOM      9  N   UNL     1      33.751-106.159  -4.342  0.00  0.00    -0.180 NA
ATOM     10  C   UNL     1      34.548-107.256  -4.377  0.00  0.00    +0.241 A 
ATOM     11  N   UNL     1      34.037-108.497  -4.145  0.00  0.00    -0.282 N 
ATOM     12  H   UNL     1      32.977-108.605  -4.052  0.00  0.00    +0.155 HD
ATOM     25  N   UNL     1      34.270-103.884  -4.692  0.00  0.00    -0.327 N 
ATOM     26  H   UNL     1      33.249-103.604  -4.538  0.00  0.00    +0.145 HD
ATOM     27  H   UNL     1      35.004-103.135  -4.903  0.00  0.00    +0.145 HD
ATOM     28  N   UNL     1      35.861-107.029  -4.661  0.00  0.00    -0.126 NA
ENDROOT
BRANCH  11  13
ATOM     13  C   UNL     1      34.812-109.598  -4.027  0.00  0.00    +0.034 A 
ATOM     14  C   UNL     1      36.086-109.639  -4.593  0.00  0.00    +0.025 A 
ATOM     15  C   UNL     1      36.894-110.764  -4.473  0.00  0.00    +0.030 A 
ATOM     16  C   UNL     1      36.426-111.878  -3.771  0.00  0.00    +0.105 A 
ATOM     23  C   UNL     1      35.136-111.842  -3.213  0.00  0.00    +0.030 A 
ATOM     24  C   UNL     1      34.332-110.704  -3.338  0.00  0.00    +0.025 A 
BRANCH  16  17
ATOM     17  S   UNL     1      37.347-113.192  -3.628  0.00  0.00    +0.056 S 
ATOM     21  O   UNL     1      37.608-113.509  -2.246  0.00  0.00    -0.153 OA
ATOM     22  O   UNL     1      36.624-114.269  -4.256  0.00  0.00    -0.153 OA
BRANCH  17  18
ATOM     18  N   UNL     1      38.743-112.995  -4.394  0.00  0.00    -0.203 NA
ATOM     19  H   UNL     1      38.558-112.815  -5.433  0.00  0.00    +0.144 HD
ATOM     20  H   UNL     1      39.266-112.161  -3.975  0.00  0.00    +0.144 HD
ENDBRANCH  17  18
ENDBRANCH  16  17
ENDBRANCH  11  13
BRANCH   7   6
ATOM      6  C   UNL     1      36.987-104.906  -5.136  0.00  0.00    +0.174 C 
ATOM     29  S   UNL     1      37.061-103.370  -4.783  0.00  0.00    -0.014 S 
BRANCH   6   4
ATOM      4  N   UNL     1      37.969-105.510  -5.848  0.00  0.00    -0.289 N 
ATOM      5  H   UNL     1      37.651-106.127  -6.662  0.00  0.00    +0.154 HD
BRANCH   4   3
ATOM      1  F   UNL     1      39.675-107.871  -5.235  0.00  0.00    -0.203 F 
ATOM      2  C   UNL     1      40.171-106.626  -5.345  0.00  0.00    +0.147 A 
ATOM      3  C   UNL     1      39.321-105.423  -5.648  0.00  0.00    +0.104 A 
ATOM     30  C   UNL     1      40.037-104.119  -5.753  0.00  0.00    +0.147 A 
ATOM     31  F   UNL     1      39.378-102.994  -6.022  0.00  0.00    -0.203 F 
ATOM     32  C   UNL     1      41.405-104.051  -5.553  0.00  0.00    +0.040 A 
ATOM     33  C   UNL     1      42.136-105.202  -5.265  0.00  0.00    +0.006 A 
ATOM     34  C   UNL     1      41.538-106.456  -5.165  0.00  0.00    +0.040 A 
ENDBRANCH   4   3
ENDBRANCH   6   4
ENDBRANCH   7   6
TORSDOF 6
