REMARK  Name = 504
REMARK  8 active torsions:
REMARK  status: ('A' for Active; 'I' for Inactive)
REMARK    1  A    between atoms: C3_3  and  C17_17
REMARK    2  A    between atoms: C5_5  and  O7_7
REMARK    3  A    between atoms: O7_7  and  C8_8
REMARK    4  A    between atoms: C8_8  and  C9_9
REMARK    5  A    between atoms: C9_9  and  C10_10
REMARK    6  A    between atoms: C10_10  and  C11_11
REMARK    7  A    between atoms: C17_17  and  C18_18
REMARK    8  A    between atoms: C23_23  and  C26_26
REMARK                            x       y       z     vdW  Elec       q    Type
REMARK                         _______ _______ _______ _____ _____    ______ ____
ROOT
ATOM     16  C   UNL     1      23.816  10.972  -0.886  0.00  0.00    +0.114 C 
ENDROOT
BRANCH  16  17
ATOM     17  C   UNL     1      25.136  10.722  -0.196  0.00  0.00    +0.252 C 
ATOM     18  O   UNL     1      25.156  10.649   1.016  0.00  0.00    -0.273 OA
ATOM     19  N   UNL     1      26.251  10.634  -0.955  0.00  0.00    -0.154 NA
ATOM     20  C   UNL     1      27.566  10.487  -0.505  0.00  0.00    +0.186 A 
ATOM     21  S   UNL     1      28.086  10.339   1.123  0.00  0.00    -0.049 S 
ATOM     22  C   UNL     1      29.758  10.317   0.582  0.00  0.00    +0.057 A 
ATOM     23  C   UNL     1      29.801  10.502  -0.751  0.00  0.00    +0.090 A 
ATOM     33  N   UNL     1      28.595  10.575  -1.303  0.00  0.00    -0.223 NA
BRANCH  23  24
ATOM     24  C   UNL     1      31.084  10.496  -1.510  0.00  0.00    +0.058 C 
ATOM     25  C   UNL     1      32.319  10.349  -0.975  0.00  0.00    +0.234 C 
ATOM     26  N   UNL     1      33.271  10.347  -1.960  0.00  0.00    -0.034 NA
ATOM     27  C   UNL     1      32.686  10.468  -3.193  0.00  0.00    +0.359 C 
ATOM     28  N   UNL     1      33.189  10.512  -4.440  0.00  0.00    -0.034 NA
ATOM     29  C   UNL     1      32.396  10.631  -5.499  0.00  0.00    +0.235 C 
ATOM     30  C   UNL     1      31.000  10.727  -5.359  0.00  0.00    +0.047 C 
ATOM     31  C   UNL     1      30.414  10.700  -4.085  0.00  0.00    -0.006 C 
ATOM     32  C   UNL     1      31.276  10.567  -2.970  0.00  0.00    +0.161 C 
ENDBRANCH  23  24
ENDBRANCH  16  17
BRANCH  16  15
ATOM      1  C   UNL     1      23.462  14.681  -0.092  0.00  0.00    +0.003 A 
ATOM      2  C   UNL     1      22.309  14.702   0.667  0.00  0.00    +0.037 A 
ATOM      3  C   UNL     1      21.668  13.505   0.953  0.00  0.00    +0.138 A 
ATOM     14  C   UNL     1      22.144  12.299   0.433  0.00  0.00    +0.033 A 
ATOM     15  C   UNL     1      23.279  12.285  -0.357  0.00  0.00    -0.010 A 
ATOM     34  C   UNL     1      23.930  13.485  -0.621  0.00  0.00    -0.004 A 
BRANCH   3   4
ATOM      4  O   UNL     1      20.526  13.550   1.677  0.00  0.00    -0.475 OA
BRANCH   4   5
ATOM      5  C   UNL     1      20.241  12.451   2.531  0.00  0.00    +0.205 C 
BRANCH   5   6
ATOM      6  C   UNL     1      18.959  11.750   2.099  0.00  0.00    +0.047 C 
BRANCH   6   7
ATOM      7  C   UNL     1      18.716  10.578   3.061  0.00  0.00    +0.004 C 
BRANCH   7   8
ATOM      8  C   UNL     1      19.880   9.567   3.080  0.00  0.00    +0.003 C 
ATOM      9  C   UNL     1      20.210   9.175   4.537  0.00  0.00    +0.019 C 
ATOM     10  C   UNL     1      21.202   8.004   4.599  0.00  0.00    +0.089 C 
ATOM     11  N   UNL     1      20.833   6.869   3.728  0.00  0.00    -0.218 NA
ATOM     12  C   UNL     1      20.535   7.230   2.322  0.00  0.00    +0.089 C 
ATOM     13  C   UNL     1      19.510   8.357   2.206  0.00  0.00    +0.019 C 
ENDBRANCH   7   8
ENDBRANCH   6   7
ENDBRANCH   5   6
ENDBRANCH   4   5
ENDBRANCH   3   4
ENDBRANCH  16  15
TORSDOF 8
