REMARK  Name = 4QO9
REMARK  8 active torsions:
REMARK  status: ('A' for Active; 'I' for Inactive)
REMARK    1  A    between atoms: C_3  and  N_5
REMARK    2  A    between atoms: C_6  and  C_7
REMARK    3  A    between atoms: N_17  and  C_24
REMARK    4  A    between atoms: N_20  and  C_23
REMARK    5  A    between atoms: C_25  and  C_32
REMARK    6  A    between atoms: C_27  and  C_32
REMARK    7  A    between atoms: C_32  and  O_35
REMARK    8  A    between atoms: C_34  and  O_35
REMARK                            x       y       z     vdW  Elec       q    Type
REMARK                         _______ _______ _______ _____ _____    ______ ____
ROOT
ATOM      1  N   UNL     1     -10.122   5.743 -13.715  0.00  0.00    -0.269 N 
ATOM      2  C   UNL     1      -9.416   5.406 -15.172  0.00  0.00    +0.253 C 
ATOM     12  O   UNL     1     -10.152   4.874 -16.045  0.00  0.00    -0.272 OA
ATOM     13  C   UNL     1     -11.627   5.543 -13.373  0.00  0.00    +0.110 C 
ATOM     14  C   UNL     1     -11.774   6.019 -12.041  0.00  0.00    +0.138 C 
ATOM     15  C   UNL     1     -10.352   6.599 -11.517  0.00  0.00    +0.094 C 
ATOM     16  C   UNL     1     -10.549   6.997 -10.370  0.00  0.00    +0.353 C 
ATOM     34  N   UNL     1     -11.931   6.728 -10.152  0.00  0.00    +0.080 NA
ATOM     35  N   UNL     1     -12.559   6.157 -11.179  0.00  0.00    -0.034 NA
ATOM     36  C   UNL     1      -9.406   6.454 -12.531  0.00  0.00    +0.159 C 
ENDROOT
BRANCH  16  17
ATOM     17  N   UNL     1      -9.815   7.513  -9.505  0.00  0.00    -0.164 N 
ATOM     18  H   UNL     1     -10.323   7.875  -8.636  0.00  0.00    +0.302 HD
ATOM     19  C   UNL     1      -8.492   7.682  -9.499  0.00  0.00    +0.333 C 
ATOM     20  O   UNL     1      -7.793   7.305 -10.467  0.00  0.00    -0.242 OA
BRANCH  19  21
ATOM     21  C   UNL     1      -7.749   8.269  -8.457  0.00  0.00    +0.062 A 
ATOM     22  C   UNL     1      -6.406   7.884  -8.226  0.00  0.00    +0.017 A 
ATOM     23  C   UNL     1      -5.656   8.468  -7.192  0.00  0.00    +0.024 A 
ATOM     24  C   UNL     1      -6.230   9.470  -6.342  0.00  0.00    +0.030 A 
ATOM     32  C   UNL     1      -7.567   9.846  -6.583  0.00  0.00    +0.024 A 
ATOM     33  C   UNL     1      -8.322   9.257  -7.619  0.00  0.00    +0.017 A 
BRANCH  24  25
ATOM     25  N   UNL     1      -5.527  10.064  -5.311  0.00  0.00    -0.328 N 
ATOM     26  C   UNL     1      -6.135  11.173  -4.588  0.00  0.00    +0.120 C 
ATOM     27  C   UNL     1      -6.807  10.628  -3.293  0.00  0.00    +0.103 C 
ATOM     28  N   UNL     1      -5.795   9.942  -2.439  0.00  0.00    -0.302 NA
ATOM     29  C   UNL     1      -6.425   9.447  -1.151  0.00  0.00    +0.105 C 
ATOM     30  C   UNL     1      -5.064   8.854  -3.196  0.00  0.00    +0.103 C 
ATOM     31  C   UNL     1      -4.493   9.370  -4.574  0.00  0.00    +0.120 C 
ENDBRANCH  24  25
ENDBRANCH  19  21
ENDBRANCH  16  17
BRANCH   2   3
ATOM      3  C   UNL     1      -8.149   5.669 -15.441  0.00  0.00    +0.234 C 
BRANCH   3   6
ATOM      6  C   UNL     1      -7.245   4.768 -14.727  0.00  0.00    -0.010 A 
ATOM      7  C   UNL     1      -7.322   3.324 -14.957  0.00  0.00    +0.007 A 
ATOM      8  C   UNL     1      -6.494   2.456 -14.301  0.00  0.00    +0.000 A 
ATOM      9  C   UNL     1      -5.571   2.929 -13.390  0.00  0.00    +0.000 A 
ATOM     10  C   UNL     1      -5.483   4.321 -13.157  0.00  0.00    +0.000 A 
ATOM     11  C   UNL     1      -6.338   5.221 -13.844  0.00  0.00    +0.007 A 
ENDBRANCH   3   6
BRANCH   3   4
ATOM      4  O   UNL     1      -7.895   5.701 -16.862  0.00  0.00    -0.366 OA
ATOM      5  C   UNL     1      -6.626   6.334 -17.268  0.00  0.00    +0.195 C 
ENDBRANCH   3   4
ENDBRANCH   2   3
TORSDOF 6
