REMARK  Name = 1oky_ligand
REMARK  5 active torsions:
REMARK  status: ('A' for Active; 'I' for Inactive)
REMARK    1  A    between atoms: C24_24  and  C35_35
REMARK    2  A    between atoms: C25_25  and  O33_33
REMARK    3  A    between atoms: C26_26  and  N31_31
REMARK    4  A    between atoms: N31_31  and  C32_32
REMARK    5  A    between atoms: O33_33  and  C34_34
REMARK                            x       y       z     vdW  Elec       q    Type
REMARK                         _______ _______ _______ _____ _____    ______ ____
ROOT
ATOM      1  C   UNL     1      79.035  16.386  11.282  0.00  0.00    -0.008 A 
ATOM      2  C   UNL     1      80.154  17.053  11.812  0.00  0.00    -0.001 A 
ATOM      3  C   UNL     1      81.361  16.522  12.164  0.00  0.00    +0.010 A 
ATOM      4  C   UNL     1      81.934  15.217  12.098  0.00  0.00    +0.007 A 
ATOM      5  C   UNL     1      81.325  14.098  11.689  0.00  0.00    +0.126 C 
ATOM      6  N   UNL     1      82.281  13.080  11.786  0.00  0.00    -0.263 NA
ATOM      7  C   UNL     1      83.457  13.603  12.261  0.00  0.00    +0.209 C 
ATOM      8  O   UNL     1      84.493  12.981  12.504  0.00  0.00    -0.330 OA
ATOM      9  C   UNL     1      83.217  14.936  12.440  0.00  0.00    +0.041 A 
ATOM     10  C   UNL     1      84.049  16.022  12.899  0.00  0.00    +0.016 A 
ATOM     11  C   UNL     1      85.364  16.127  13.248  0.00  0.00    +0.000 A 
ATOM     12  C   UNL     1      86.329  15.117  13.306  0.00  0.00    -0.008 A 
ATOM     13  C   UNL     1      87.645  15.476  13.689  0.00  0.00    -0.022 A 
ATOM     14  C   UNL     1      87.961  16.831  14.007  0.00  0.00    -0.015 A 
ATOM     15  C   UNL     1      86.968  17.838  13.942  0.00  0.00    +0.016 A 
ATOM     16  C   UNL     1      85.663  17.477  13.561  0.00  0.00    +0.073 A 
ATOM     17  N   UNL     1      84.462  18.150  13.376  0.00  0.00    -0.228 N 
ATOM     18  C   UNL     1      84.278  19.595  13.658  0.00  0.00    +0.263 C 
ATOM     19  O   UNL     1      82.889  19.845  13.980  0.00  0.00    -0.314 OA
ATOM     20  C   UNL     1      81.939  19.930  12.872  0.00  0.00    +0.202 C 
ATOM     21  C   UNL     1      80.791  20.824  13.403  0.00  0.00    +0.079 C 
ATOM     22  C   UNL     1      82.557  20.621  11.610  0.00  0.00    +0.227 C 
ATOM     25  C   UNL     1      83.748  21.455  12.055  0.00  0.00    +0.102 C 
ATOM     30  N   UNL     1      81.456  18.689  12.528  0.00  0.00    -0.226 N 
ATOM     31  C   UNL     1      84.847  20.523  12.559  0.00  0.00    +0.121 C 
ATOM     32  C   UNL     1      83.501  17.279  12.972  0.00  0.00    +0.113 A 
ATOM     33  C   UNL     1      82.162  17.525  12.606  0.00  0.00    +0.111 A 
ATOM     34  C   UNL     1      80.172  18.450  12.023  0.00  0.00    +0.072 A 
ATOM     35  C   UNL     1      79.039  19.219  11.690  0.00  0.00    +0.016 A 
ATOM     36  C   UNL     1      77.901  18.569  11.148  0.00  0.00    -0.014 A 
ATOM     37  C   UNL     1      77.899  17.158  10.946  0.00  0.00    -0.021 A 
ENDROOT
BRANCH  25  26
ATOM     26  N   UNL     1      84.251  22.242  10.916  0.00  0.00    +0.229 N 
ATOM     27  H   UNL     1      85.226  22.406  11.113  0.00  0.00    +0.201 HD
ATOM     28  H   UNL     1      84.167  21.637  10.114  0.00  0.00    +0.201 HD
ATOM     29  C   UNL     1      83.716  23.544  10.481  0.00  0.00    +0.189 C 
ENDBRANCH  25  26
BRANCH  22  23
ATOM     23  O   UNL     1      83.091  19.645  10.691  0.00  0.00    -0.369 OA
ATOM     24  C   UNL     1      82.178  19.404   9.614  0.00  0.00    +0.195 C 
ENDBRANCH  22  23
TORSDOF 2
