REMARK  Name = 3b2w_ligand
REMARK  10 active torsions:
REMARK  status: ('A' for Active; 'I' for Inactive)
REMARK    1  A    between atoms: N6_4  and  C13_11
REMARK    2  A    between atoms: C10_8  and  C14_12
REMARK    3  A    between atoms: C15_13  and  C16_14
REMARK    4  A    between atoms: C19_15  and  O3_38
REMARK    5  A    between atoms: C21_17  and  O3_38
REMARK    6  A    between atoms: C24_19  and  C25_24
REMARK    7  A    between atoms: C27_20  and  C18_32
REMARK    8  A    between atoms: C31_22  and  N7_34
REMARK    9  A    between atoms: N3_25  and  C26_26
REMARK   10  A    between atoms: C29_40  and  N5_44
REMARK                            x       y       z     vdW  Elec       q    Type
REMARK                         _______ _______ _______ _____ _____    ______ ____
ROOT
ATOM     20  C   UNL     1      15.814  -5.553  13.473  0.00  0.00    +0.229 C 
ATOM     21  O   UNL     1      16.015  -6.255  12.500  0.00  0.00    -0.381 OA
ATOM     22  N   UNL     1      14.751  -5.729  14.280  0.00  0.00    -0.237 N 
ATOM     23  H   UNL     1      14.570  -5.087  15.025  0.00  0.00    +0.223 HD
ENDROOT
BRANCH  20  18
ATOM     11  N   UNL     1      19.122  -1.301  14.084  0.00  0.00    -0.249 N 
ATOM     12  H   UNL     1      19.868  -1.279  13.374  0.00  0.00    +0.216 HD
ATOM     13  C   UNL     1      18.324  -2.382  14.054  0.00  0.00    +0.201 A 
ATOM     14  N   UNL     1      17.233  -2.452  14.844  0.00  0.00    -0.220 NA
ATOM     15  C   UNL     1      16.436  -3.486  14.709  0.00  0.00    +0.189 A 
ATOM     18  C   UNL     1      16.715  -4.475  13.766  0.00  0.00    +0.122 A 
ATOM     19  C   UNL     1      17.893  -4.366  12.969  0.00  0.00    +0.116 A 
ATOM     46  N   UNL     1      18.670  -3.305  13.144  0.00  0.00    -0.260 NA
BRANCH  11   9
ATOM      6  C   UNL     1      19.267   1.949  16.661  0.00  0.00    +0.030 A 
ATOM      7  C   UNL     1      20.492   1.452  16.036  0.00  0.00    -0.004 A 
ATOM      8  C   UNL     1      20.385   0.338  15.148  0.00  0.00    +0.002 A 
ATOM      9  C   UNL     1      19.078  -0.221  14.933  0.00  0.00    +0.054 A 
ATOM     10  C   UNL     1      17.856   0.306  15.574  0.00  0.00    +0.002 A 
ATOM     47  C   UNL     1      17.938   1.407  16.456  0.00  0.00    -0.004 A 
BRANCH   6   3
ATOM      1  C   UNL     1      19.758   3.541  19.820  0.00  0.00    +0.153 C 
ATOM      2  C   UNL     1      18.752   2.965  18.843  0.00  0.00    +0.177 C 
ATOM      3  N   UNL     1      19.362   3.012  17.491  0.00  0.00    -0.304 N 
ATOM      4  C   UNL     1      20.092   4.215  17.013  0.00  0.00    +0.177 C 
ATOM      5  C   UNL     1      20.913   4.810  18.149  0.00  0.00    +0.153 C 
ATOM     48  N   UNL     1      19.979   4.922  19.312  0.00  0.00    +0.230 N 
ATOM     49  H   UNL     1      19.105   5.327  19.017  0.00  0.00    +0.202 HD
ATOM     50  H   UNL     1      20.389   5.495  20.032  0.00  0.00    +0.202 HD
ENDBRANCH   6   3
ENDBRANCH  11   9
BRANCH  15  16
ATOM     16  O   UNL     1      15.369  -3.576  15.537  0.00  0.00    -0.292 OA
ATOM     17  C   UNL     1      15.213  -2.522  16.489  0.00  0.00    +0.245 C 
ENDBRANCH  15  16
ENDBRANCH  20  18
BRANCH  22  24
ATOM     24  C   UNL     1      13.926  -6.788  14.071  0.00  0.00    +0.074 A 
ATOM     25  C   UNL     1      14.154  -8.049  14.732  0.00  0.00    -0.019 A 
ATOM     26  C   UNL     1      13.295  -9.212  14.553  0.00  0.00    -0.015 A 
ATOM     27  C   UNL     1      12.175  -9.051  13.658  0.00  0.00    -0.011 A 
ATOM     28  C   UNL     1      11.958  -7.751  12.984  0.00  0.00    +0.035 A 
ATOM     44  C   UNL     1      15.339  -8.158  15.640  0.00  0.00    +0.079 C 
ATOM     45  C   UNL     1      12.829  -6.619  13.190  0.00  0.00    +0.026 A 
BRANCH  28  29
ATOM     29  C   UNL     1      10.843  -7.534  12.017  0.00  0.00    +0.223 C 
ATOM     30  O   UNL     1      10.777  -6.532  11.311  0.00  0.00    -0.377 OA
ATOM     31  N   UNL     1       9.916  -8.531  11.946  0.00  0.00    -0.228 N 
ATOM     32  H   UNL     1       9.919  -9.232  12.659  0.00  0.00    +0.224 HD
BRANCH  31  33
ATOM     33  C   UNL     1       8.979  -8.624  10.948  0.00  0.00    +0.131 A 
ATOM     34  C   UNL     1       9.281  -8.582   9.552  0.00  0.00    +0.189 A 
ATOM     35  F   UNL     1      10.552  -8.469   9.227  0.00  0.00    -0.166 F 
ATOM     36  C   UNL     1       8.274  -8.649   8.509  0.00  0.00    +0.068 A 
ATOM     41  C   UNL     1       6.902  -8.770   8.942  0.00  0.00    +0.022 A 
ATOM     42  C   UNL     1       6.561  -8.818  10.337  0.00  0.00    +0.013 A 
ATOM     43  C   UNL     1       7.606  -8.744  11.319  0.00  0.00    +0.059 A 
BRANCH  36  37
ATOM     37  C   UNL     1       8.680  -8.581   7.025  0.00  0.00    +0.372 C 
ATOM     38  F   UNL     1       9.290  -7.399   6.754  0.00  0.00    -0.224 F 
ATOM     39  F   UNL     1       9.502  -9.604   6.767  0.00  0.00    -0.224 F 
ATOM     40  F   UNL     1       7.623  -8.721   6.249  0.00  0.00    -0.224 F 
ENDBRANCH  36  37
ENDBRANCH  31  33
ENDBRANCH  28  29
ENDBRANCH  22  24
TORSDOF 8
