REMARK  Name = 8P9
REMARK  5 active torsions:
REMARK  status: ('A' for Active; 'I' for Inactive)
REMARK    1  A    between atoms: OAL_2  and  CAB_3
REMARK    2  A    between atoms: CAA_12  and  NAK_13
REMARK    3  A    between atoms: NAK_13  and  SAN_14
REMARK    4  A    between atoms: SAN_14  and  CAQ_17
REMARK    5  A    between atoms: CAR_23  and  OAW_24
REMARK                            x       y       z     vdW  Elec       q    Type
REMARK                         _______ _______ _______ _____ _____    ______ ____
ROOT
ATOM      3  C   UNL     1      12.799   8.427   2.177  0.00  0.00    +0.158 A 
ATOM      4  C   UNL     1      13.802   7.504   1.877  0.00  0.00    +0.078 A 
ATOM      5  C   UNL     1      13.621   6.668   0.857  0.00  0.00    +0.180 A 
ATOM      6  O   UNL     1      14.509   5.709   0.403  0.00  0.00    -0.354 OA
ATOM      7  N   UNL     1      13.771   5.046  -0.706  0.00  0.00    -0.081 NA
ATOM      8  C   UNL     1      12.606   5.682  -0.812  0.00  0.00    +0.101 A 
ATOM      9  C   UNL     1      11.571   5.298  -1.855  0.00  0.00    +0.056 C 
ATOM     10  C   UNL     1      12.477   6.634   0.112  0.00  0.00    +0.055 A 
ATOM     11  C   UNL     1      11.488   7.534   0.352  0.00  0.00    +0.026 A 
ATOM     12  C   UNL     1      11.621   8.441   1.419  0.00  0.00    +0.125 A 
ENDROOT
BRANCH   3   2
ATOM      1  C   UNL     1      13.924   9.230   4.156  0.00  0.00    +0.253 C 
ATOM      2  O   UNL     1      12.853   9.346   3.185  0.00  0.00    -0.470 OA
ENDBRANCH   3   2
BRANCH  12  13
ATOM     13  N   UNL     1      10.718   9.415   1.742  0.00  0.00    -0.093 NA
BRANCH  13  14
ATOM     14  S   UNL     1       9.169   9.010   2.247  0.00  0.00    +0.096 S 
ATOM     23  O   UNL     1       8.364  10.243   2.403  0.00  0.00    -0.148 OA
ATOM     24  O   UNL     1       8.648   8.015   1.290  0.00  0.00    -0.148 OA
BRANCH  14  15
ATOM     15  C   UNL     1       9.332   8.230   3.788  0.00  0.00    +0.161 A 
ATOM     16  C   UNL     1       9.868   8.904   4.881  0.00  0.00    +0.158 A 
ATOM     17  C   UNL     1       9.990   8.238   6.112  0.00  0.00    +0.038 A 
ATOM     18  C   UNL     1       9.599   6.919   6.222  0.00  0.00    +0.003 A 
ATOM     19  C   UNL     1       9.086   6.266   5.114  0.00  0.00    +0.002 A 
ATOM     22  C   UNL     1       8.951   6.903   3.907  0.00  0.00    +0.023 A 
BRANCH  16  20
ATOM     20  O   UNL     1      10.207  10.221   4.693  0.00  0.00    -0.470 OA
ATOM     21  C   UNL     1      10.798  10.966   5.774  0.00  0.00    +0.253 C 
ENDBRANCH  16  20
ENDBRANCH  14  15
ENDBRANCH  13  14
ENDBRANCH  12  13
TORSDOF 5
