REMARK  Name = 4c4g_ligand
REMARK  12 active torsions:
REMARK  status: ('A' for Active; 'I' for Inactive)
REMARK    1  A    between atoms: C20_2  and  O1_3
REMARK    2  A    between atoms: O1_3  and  C21_4
REMARK    3  A    between atoms: C21_4  and  C24_5
REMARK    4  A    between atoms: C21_4  and  C23_6
REMARK    5  A    between atoms: C21_4  and  C22_7
REMARK    6  A    between atoms: C4_9  and  C3_10
REMARK    7  A    between atoms: N_14  and  C_15
REMARK    8  A    between atoms: C8_20  and  N3_23
REMARK    9  A    between atoms: N3_23  and  C9_24
REMARK   10  A    between atoms: C12_27  and  C13_31
REMARK   11  A    between atoms: N4_33  and  C15_34
REMARK   12  A    between atoms: N4_33  and  C14_35
REMARK                            x       y       z     vdW  Elec       q    Type
REMARK                         _______ _______ _______ _____ _____    ______ ____
ROOT
ATOM      1  O   UNL     1      -2.613  39.517 128.699  0.00  0.00    -0.346 OA
ATOM      2  C   UNL     1      -1.907  40.501 128.886  0.00  0.00    +0.396 C 
ATOM      3  N   UNL     1      -1.768  41.075 130.176  0.00  0.00    -0.147 N 
ATOM      4  C   UNL     1      -1.045  42.266 130.456  0.00  0.00    +0.102 A 
ATOM      5  C   UNL     1      -0.284  43.124 129.626  0.00  0.00    +0.055 A 
ATOM      6  C   UNL     1       0.403  44.187 130.290  0.00  0.00    +0.112 A 
ATOM     21  N   UNL     1       0.312  44.409 131.685  0.00  0.00    -0.303 NA
ATOM     22  C   UNL     1      -0.456  43.558 132.424  0.00  0.00    +0.054 A 
ATOM     23  C   UNL     1      -1.142  42.489 131.872  0.00  0.00    -0.014 A 
ATOM     24  C   UNL     1      -1.930  41.452 132.419  0.00  0.00    -0.043 A 
ATOM     25  C   UNL     1      -2.307  40.578 131.431  0.00  0.00    +0.082 A 
ENDROOT
BRANCH  25  26
ATOM     26  C   UNL     1      -3.063  39.336 131.636  0.00  0.00    +0.028 A 
ATOM     27  C   UNL     1      -2.947  38.511 132.774  0.00  0.00    +0.169 A 
ATOM     28  N   UNL     1      -3.865  37.482 132.641  0.00  0.00    -0.206 N 
ATOM     29  C   UNL     1      -4.228  36.517 133.686  0.00  0.00    +0.243 C 
ATOM     30  N   UNL     1      -4.535  37.570 131.439  0.00  0.00    -0.213 NA
ATOM     31  C   UNL     1      -4.075  38.699 130.829  0.00  0.00    +0.076 A 
ENDBRANCH  25  26
BRANCH   6   7
ATOM      7  N   UNL     1       1.273  45.021 129.560  0.00  0.00    -0.266 N 
ATOM      8  H   UNL     1       1.925  45.578 130.131  0.00  0.00    +0.211 HD
BRANCH   7   9
ATOM      9  C   UNL     1       1.386  45.207 128.179  0.00  0.00    +0.078 A 
ATOM     10  C   UNL     1       1.347  46.544 127.624  0.00  0.00    +0.067 A 
ATOM     11 CL   UNL     1       1.049  47.976 128.649  0.00  0.00    -0.079 Cl
ATOM     12  C   UNL     1       1.560  46.758 126.252  0.00  0.00    +0.026 A 
ATOM     13  C   UNL     1       1.834  45.631 125.449  0.00  0.00    +0.038 A 
ATOM     19  C   UNL     1       1.838  44.350 125.977  0.00  0.00    +0.012 A 
ATOM     20  C   UNL     1       1.617  44.134 127.317  0.00  0.00    +0.021 A 
BRANCH  13  14
ATOM     14  C   UNL     1       2.296  45.795 124.038  0.00  0.00    +0.198 C 
ATOM     15  N   UNL     1       1.762  44.969 123.009  0.00  0.00    -0.280 N 
ATOM     16  C   UNL     1       0.318  44.712 122.884  0.00  0.00    +0.167 C 
ATOM     17  C   UNL     1       2.511  44.800 121.753  0.00  0.00    +0.167 C 
ATOM     18  O   UNL     1       3.185  46.618 123.782  0.00  0.00    -0.390 OA
ENDBRANCH  13  14
ENDBRANCH   7   9
ENDBRANCH   6   7
BRANCH   2  32
ATOM     32  O   UNL     1      -1.173  41.123 127.882  0.00  0.00    -0.245 OA
BRANCH  32  33
ATOM     33  C   UNL     1      -1.272  40.702 126.467  0.00  0.00    +0.092 C 
ATOM     34  C   UNL     1      -1.046  39.220 126.240  0.00  0.00    +0.046 C 
ATOM     35  C   UNL     1      -0.167  41.511 125.832  0.00  0.00    +0.046 C 
ATOM     36  C   UNL     1      -2.630  41.140 125.954  0.00  0.00    +0.046 C 
ENDBRANCH  32  33
ENDBRANCH   2  32
TORSDOF 6
