REMARK  Name = 9B2
REMARK  2 active torsions:
REMARK  status: ('A' for Active; 'I' for Inactive)
REMARK    1  A    between atoms: NAR_6  and  CAO_7
REMARK    2  A    between atoms: CAL_12  and  CAD_13
REMARK                            x       y       z     vdW  Elec       q    Type
REMARK                         _______ _______ _______ _____ _____    ______ ____
ROOT
ATOM      3  C   UNL     1       6.420  38.342   7.915  0.00  0.00    +0.048 A 
ATOM      4  C   UNL     1       7.023  39.181   8.857  0.00  0.00    +0.015 A 
ATOM      5  C   UNL     1       7.096  38.834  10.211  0.00  0.00    +0.004 A 
ATOM      6  C   UNL     1       6.606  37.608  10.684  0.00  0.00    +0.036 A 
ATOM     18  C   UNL     1       5.977  36.787   9.754  0.00  0.00    +0.004 A 
ATOM     19  C   UNL     1       5.888  37.144   8.413  0.00  0.00    +0.015 A 
ENDROOT
BRANCH   6   7
ATOM      7  C   UNL     1       6.630  37.276  12.055  0.00  0.00    +0.165 A 
ATOM      8  N   UNL     1       7.429  37.965  12.976  0.00  0.00    -0.189 NA
ATOM      9  C   UNL     1       7.418  37.695  14.331  0.00  0.00    +0.282 A 
ATOM     10  O   UNL     1       8.171  38.340  15.071  0.00  0.00    -0.265 OA
ATOM     11  C   UNL     1       6.539  36.697  14.779  0.00  0.00    +0.076 A 
ATOM     12  C   UNL     1       6.449  36.346  16.119  0.00  0.00    +0.006 A 
ATOM     13  C   UNL     1       5.570  35.334  16.522  0.00  0.00    +0.000 A 
ATOM     14  C   UNL     1       4.796  34.666  15.563  0.00  0.00    +0.002 A 
ATOM     15  C   UNL     1       4.893  35.010  14.222  0.00  0.00    +0.019 A 
ATOM     16  C   UNL     1       5.767  36.015  13.828  0.00  0.00    +0.088 A 
ATOM     17  N   UNL     1       5.799  36.332  12.521  0.00  0.00    -0.226 NA
ENDBRANCH   6   7
BRANCH   3   2
ATOM      1  C   UNL     1       6.506  40.124   6.194  0.00  0.00    +0.091 C 
ATOM      2  N   UNL     1       6.305  38.695   6.591  0.00  0.00    -0.308 N 
ATOM     20  C   UNL     1       5.815  37.695   5.568  0.00  0.00    +0.091 C 
ATOM     21  C   UNL     1       5.516  38.248   4.165  0.00  0.00    +0.021 C 
ATOM     22  C   UNL     1       6.123  39.596   3.915  0.00  0.00    +0.004 C 
ATOM     23  C   UNL     1       5.731  40.541   5.019  0.00  0.00    +0.021 C 
ENDBRANCH   3   2
TORSDOF 2
