REMARK  Name = 4at3_ligand
REMARK  4 active torsions:
REMARK  status: ('A' for Active; 'I' for Inactive)
REMARK    1  A    between atoms: C5_5  and  C10_10
REMARK    2  A    between atoms: C1_8  and  S24_24
REMARK    3  A    between atoms: C4_9  and  N6_20
REMARK    4  A    between atoms: C13_16  and  S24_24
REMARK                            x       y       z     vdW  Elec       q    Type
REMARK                         _______ _______ _______ _____ _____    ______ ____
ROOT
ATOM     10  C   UNL     1       8.263 -27.667 -15.621  0.00  0.00    +0.065 A 
ATOM     11  N   UNL     1       7.491 -26.853 -16.343  0.00  0.00    -0.301 NA
ATOM     12  S   UNL     1       6.657 -25.813 -15.322  0.00  0.00    +0.029 S 
ATOM     13  C   UNL     1       7.338 -26.476 -13.876  0.00  0.00    +0.180 A 
ATOM     21  C   UNL     1       8.237 -27.511 -14.187  0.00  0.00    +0.107 A 
ENDROOT
BRANCH  13  14
ATOM     14  N   UNL     1       7.003 -26.036 -12.591  0.00  0.00    -0.176 N 
ATOM     15  H   UNL     1       7.469 -26.497 -11.835  0.00  0.00    +0.253 HD
ATOM     16  C   UNL     1       6.113 -25.049 -12.238  0.00  0.00    +0.306 C 
ATOM     17  O   UNL     1       5.460 -24.381 -13.024  0.00  0.00    -0.382 OA
ATOM     18  N   UNL     1       6.013 -24.886 -10.879  0.00  0.00    -0.278 N 
ATOM     19  H   UNL     1       6.558 -25.458 -10.265  0.00  0.00    +0.182 HD
ATOM     20  H   UNL     1       5.395 -24.196 -10.502  0.00  0.00    +0.182 HD
ENDBRANCH  13  14
BRANCH  21  22
ATOM     22  C   UNL     1       8.948 -28.245 -13.118  0.00  0.00    +0.172 C 
ATOM     23  O   UNL     1       8.647 -28.151 -11.930  0.00  0.00    -0.414 OA
ATOM     24  N   UNL     1       9.986 -29.025 -13.525  0.00  0.00    -0.309 N 
ATOM     25  H   UNL     1      10.224 -29.074 -14.495  0.00  0.00    +0.179 HD
ATOM     26  H   UNL     1      10.511 -29.549 -12.854  0.00  0.00    +0.179 HD
ENDBRANCH  21  22
BRANCH  10   9
ATOM      9  S   UNL     1       9.206 -28.840 -16.522  0.00  0.00    -0.065 S 
BRANCH   9   8
ATOM      1  C   UNL     1      13.322 -25.545 -17.751  0.00  0.00    -0.021 A 
ATOM      2  C   UNL     1      13.410 -26.962 -17.742  0.00  0.00    -0.013 A 
ATOM      3  C   UNL     1      12.272 -27.794 -17.854  0.00  0.00    -0.040 A 
ATOM      4  C   UNL     1      12.486 -29.277 -17.823  0.00  0.00    +0.061 C 
ATOM      5  C   UNL     1      12.032 -29.922 -19.109  0.00  0.00    +0.013 C 
ATOM      6  C   UNL     1      10.549 -30.202 -19.096  0.00  0.00    +0.005 C 
ATOM      7  C   UNL     1       9.754 -28.928 -19.311  0.00  0.00    +0.030 C 
ATOM      8  C   UNL     1       9.715 -27.993 -18.092  0.00  0.00    +0.113 C 
ATOM     27  C   UNL     1      10.990 -27.196 -17.980  0.00  0.00    -0.025 A 
ATOM     28  C   UNL     1      10.895 -25.777 -17.985  0.00  0.00    -0.012 A 
ATOM     29  C   UNL     1      12.056 -24.943 -17.878  0.00  0.00    -0.021 A 
ENDBRANCH   9   8
ENDBRANCH  10   9
TORSDOF 4
