REMARK  Name = 5JH6
REMARK  8 active torsions:
REMARK  status: ('A' for Active; 'I' for Inactive)
REMARK    1  A    between atoms: C_1  and  N_2
REMARK    2  A    between atoms: N_7  and  C_8
REMARK    3  A    between atoms: C_13  and  N_14
REMARK    4  A    between atoms: N_21  and  C_22
REMARK    5  A    between atoms: C_27  and  O_28
REMARK    6  A    between atoms: O_28  and  C_29
REMARK    7  A    between atoms: C_29  and  C_30
REMARK    8  A    between atoms: C_30  and  C_31
REMARK                            x       y       z     vdW  Elec       q    Type
REMARK                         _______ _______ _______ _____ _____    ______ ____
ROOT
ATOM     10  N   UNL     1     -15.801 -46.827 -16.643  0.00  0.00    -0.284 N 
ATOM     11  H   UNL     1     -16.369 -46.624 -15.760  0.00  0.00    +0.155 HD
ATOM     12  C   UNL     1     -14.475 -47.243 -16.179  0.00  0.00    +0.221 A 
ATOM     13  N   UNL     1     -14.086 -48.506 -16.269  0.00  0.00    -0.198 NA
ATOM     14  C   UNL     1     -12.871 -48.874 -15.847  0.00  0.00    +0.147 A 
ATOM     15  N   UNL     1     -12.445 -50.275 -15.947  0.00  0.00    -0.295 N 
ATOM     16  H   UNL     1     -12.908 -50.780 -15.125  0.00  0.00    +0.154 HD
ATOM     28  C   UNL     1     -12.039 -47.912 -15.308  0.00  0.00    +0.099 A 
ATOM     29 CL   UNL     1     -10.412 -48.309 -14.718  0.00  0.00    -0.078 Cl
ATOM     30  C   UNL     1     -12.485 -46.592 -15.225  0.00  0.00    +0.138 A 
ATOM     31  N   UNL     1     -13.704 -46.315 -15.671  0.00  0.00    -0.221 NA
ENDROOT
BRANCH  10   9
ATOM      6  C   UNL     1     -18.356 -49.208 -19.094  0.00  0.00    +0.030 A 
ATOM      7  C   UNL     1     -16.987 -49.444 -19.110  0.00  0.00    +0.025 A 
ATOM      8  C   UNL     1     -16.139 -48.667 -18.310  0.00  0.00    +0.025 A 
ATOM      9  C   UNL     1     -16.665 -47.666 -17.494  0.00  0.00    +0.034 A 
ATOM     32  C   UNL     1     -18.031 -47.434 -17.482  0.00  0.00    +0.025 A 
ATOM     33  C   UNL     1     -18.882 -48.206 -18.285  0.00  0.00    +0.025 A 
BRANCH   6   5
ATOM      1  C   UNL     1     -21.989 -52.414 -21.598  0.00  0.00    +0.105 C 
ATOM      2  N   UNL     1     -21.093 -51.500 -21.575  0.00  0.00    -0.302 NA
ATOM      3  C   UNL     1     -21.535 -50.502 -20.755  0.00  0.00    +0.103 C 
ATOM      4  C   UNL     1     -20.475 -49.437 -20.481  0.00  0.00    +0.120 C 
ATOM      5  N   UNL     1     -19.275 -50.017 -19.933  0.00  0.00    -0.328 N 
ATOM     34  C   UNL     1     -18.813 -50.999 -20.897  0.00  0.00    +0.120 C 
ATOM     35  C   UNL     1     -19.894 -52.038 -21.182  0.00  0.00    +0.103 C 
ENDBRANCH   6   5
ENDBRANCH  10   9
BRANCH  15  17
ATOM     17  C   UNL     1     -12.695 -51.134 -17.145  0.00  0.00    +0.075 A 
ATOM     18  C   UNL     1     -11.762 -51.144 -18.199  0.00  0.00    +0.153 A 
ATOM     24  C   UNL     1     -11.947 -51.929 -19.339  0.00  0.00    +0.048 A 
ATOM     25  C   UNL     1     -13.091 -52.742 -19.431  0.00  0.00    +0.004 A 
ATOM     26  C   UNL     1     -14.024 -52.743 -18.380  0.00  0.00    +0.002 A 
ATOM     27  C   UNL     1     -13.837 -51.947 -17.235  0.00  0.00    +0.027 A 
BRANCH  18  19
ATOM     19  O   UNL     1     -10.604 -50.307 -18.088  0.00  0.00    -0.424 OA
BRANCH  19  20
ATOM     20  C   UNL     1      -9.350 -50.954 -18.210  0.00  0.00    +0.312 C 
ATOM     21  O   UNL     1      -9.259 -52.138 -18.292  0.00  0.00    -0.250 OA
BRANCH  20  22
ATOM     22  C   UNL     1      -8.137 -50.021 -18.231  0.00  0.00    +0.117 C 
ATOM     23  C   UNL     1      -8.628 -48.591 -18.011  0.00  0.00    +0.015 C 
ENDBRANCH  20  22
ENDBRANCH  19  20
ENDBRANCH  18  19
ENDBRANCH  15  17
TORSDOF 6
