REMARK  Name = 8NJ
REMARK  3 active torsions:
REMARK  status: ('A' for Active; 'I' for Inactive)
REMARK    1  A    between atoms: C15_8  and  O24_24
REMARK    2  A    between atoms: C12_16  and  C18_19
REMARK    3  A    between atoms: C14_17  and  O24_24
REMARK                            x       y       z     vdW  Elec       q    Type
REMARK                         _______ _______ _______ _____ _____    ______ ____
ROOT
ATOM      7  C   UNL     1      13.740  10.829  19.922  0.00  0.00    +0.145 A 
ATOM      8  C   UNL     1      12.510  10.708  20.538  0.00  0.00    +0.037 A 
ATOM      9  C   UNL     1      11.360  10.662  19.777  0.00  0.00    +0.003 A 
ATOM     10  C   UNL     1      11.434  10.727  18.400  0.00  0.00    +0.000 A 
ATOM     11  C   UNL     1      12.662  10.848  17.782  0.00  0.00    +0.003 A 
ATOM     12  C   UNL     1      13.816  10.896  18.540  0.00  0.00    +0.036 A 
ENDROOT
BRANCH  12  13
ATOM     13  C   UNL     1      15.104  11.077  17.882  0.00  0.00    +0.022 C 
ATOM     14  C   UNL     1      15.906  12.227  18.051  0.00  0.00    +0.025 A 
ATOM     15  C   UNL     1      15.718  13.400  18.824  0.00  0.00    +0.022 A 
ATOM     16  C   UNL     1      16.838  14.175  18.615  0.00  0.00    +0.099 A 
ATOM     17  N   UNL     1      17.657  13.503  17.751  0.00  0.00    -0.239 NA
ATOM     18  C   UNL     1      17.106  12.304  17.402  0.00  0.00    +0.137 A 
ATOM     19  C   UNL     1      17.633  11.298  16.541  0.00  0.00    +0.279 C 
ATOM     20  N   UNL     1      16.778  10.204  16.422  0.00  0.00    -0.291 N 
ATOM     21  C   UNL     1      17.141   9.095  15.582  0.00  0.00    +0.134 C 
ATOM     22  O   UNL     1      18.717  11.421  15.995  0.00  0.00    -0.265 OA
ATOM     23  C   UNL     1      15.564  10.106  17.078  0.00  0.00    +0.079 C 
ENDBRANCH  12  13
BRANCH   7   6
ATOM      6  O   UNL     1      14.940  10.895  20.631  0.00  0.00    -0.454 OA
BRANCH   6   5
ATOM      1  C   UNL     1      15.282   9.393  23.927  0.00  0.00    +0.003 A 
ATOM      2  C   UNL     1      15.090  10.500  24.731  0.00  0.00    +0.000 A 
ATOM      3  C   UNL     1      14.846  11.740  24.173  0.00  0.00    +0.003 A 
ATOM      4  C   UNL     1      14.797  11.879  22.801  0.00  0.00    +0.037 A 
ATOM      5  C   UNL     1      14.961  10.762  22.007  0.00  0.00    +0.145 A 
ATOM     24  C   UNL     1      15.217   9.522  22.555  0.00  0.00    +0.037 A 
ENDBRANCH   6   5
ENDBRANCH   7   6
TORSDOF 3
