REMARK  Name = 4h58_ligand
REMARK  8 active torsions:
REMARK  status: ('A' for Active; 'I' for Inactive)
REMARK    1  A    between atoms: C29_1  and  O28_2
REMARK    2  A    between atoms: O28_2  and  C27_3
REMARK    3  A    between atoms: C27_3  and  C26_4
REMARK    4  A    between atoms: C26_4  and  N25_5
REMARK    5  A    between atoms: N25_5  and  C24_6
REMARK    6  A    between atoms: C24_6  and  C18_7
REMARK    7  A    between atoms: C23_10  and  N17_13
REMARK    8  A    between atoms: C15_19  and  C2_24
REMARK                            x       y       z     vdW  Elec       q    Type
REMARK                         _______ _______ _______ _____ _____    ______ ____
ROOT
ATOM     13  N   UNL     1      26.539 122.301  78.730  0.00  0.00    -0.244 N 
ATOM     14  H   UNL     1      26.305 123.298  78.836  0.00  0.00    +0.217 HD
ATOM     15  C   UNL     1      25.496 121.448  79.195  0.00  0.00    +0.208 A 
ATOM     16  N   UNL     1      24.329 121.995  79.707  0.00  0.00    -0.238 NA
ATOM     17  C   UNL     1      23.281 121.196  80.164  0.00  0.00    +0.135 A 
ATOM     18  C   UNL     1      23.382 119.820  80.120  0.00  0.00    +0.026 A 
ATOM     19  C   UNL     1      22.341 119.006  80.570  0.00  0.00    +0.038 A 
ATOM     20  C   UNL     1      22.471 117.618  80.524  0.00  0.00    -0.002 A 
ATOM     27  C   UNL     1      23.639 117.078  80.002  0.00  0.00    +0.023 A 
ATOM     28  C   UNL     1      24.667 117.895  79.555  0.00  0.00    +0.023 A 
ATOM     29  C   UNL     1      24.552 119.269  79.610  0.00  0.00    +0.043 A 
ATOM     30  N   UNL     1      25.594 120.066  79.154  0.00  0.00    -0.262 NA
ENDROOT
BRANCH  13  12
ATOM      9  C   UNL     1      30.425 122.089  77.082  0.00  0.00    -0.009 A 
ATOM     10  C   UNL     1      29.821 123.280  77.435  0.00  0.00    -0.011 A 
ATOM     11  C   UNL     1      28.542 123.285  77.964  0.00  0.00    +0.008 A 
ATOM     12  C   UNL     1      27.829 122.106  78.153  0.00  0.00    +0.060 A 
ATOM     31  C   UNL     1      28.425 120.897  77.803  0.00  0.00    +0.008 A 
ATOM     32  C   UNL     1      29.718 120.895  77.265  0.00  0.00    -0.011 A 
BRANCH   9   8
ATOM      8  C   UNL     1      31.843 122.098  76.505  0.00  0.00    +0.187 C 
BRANCH   8   5
ATOM      5  N   UNL     1      32.902 122.530  77.465  0.00  0.00    +0.239 N 
ATOM      6  H   UNL     1      32.974 121.831  78.188  0.00  0.00    +0.203 HD
ATOM      7  H   UNL     1      32.617 123.406  77.873  0.00  0.00    +0.203 HD
BRANCH   5   4
ATOM      4  C   UNL     1      34.250 122.716  76.865  0.00  0.00    +0.159 C 
BRANCH   4   3
ATOM      3  C   UNL     1      35.335 121.771  77.421  0.00  0.00    +0.210 C 
BRANCH   3   2
ATOM      1  C   UNL     1      37.543 121.673  78.414  0.00  0.00    +0.194 C 
ATOM      2  O   UNL     1      36.504 122.485  77.855  0.00  0.00    -0.378 OA
ENDBRANCH   3   2
ENDBRANCH   4   3
ENDBRANCH   5   4
ENDBRANCH   8   5
ENDBRANCH   9   8
ENDBRANCH  13  12
BRANCH  20  21
ATOM     21  C   UNL     1      21.398 116.692  80.955  0.00  0.00    +0.001 A 
ATOM     22  C   UNL     1      20.070 117.030  80.712  0.00  0.00    +0.043 A 
ATOM     23  C   UNL     1      19.036 116.183  81.080  0.00  0.00    +0.091 A 
ATOM     24  N   UNL     1      19.324 114.977  81.683  0.00  0.00    -0.299 NA
ATOM     25  C   UNL     1      20.650 114.625  81.913  0.00  0.00    +0.091 A 
ATOM     26  C   UNL     1      21.688 115.472  81.549  0.00  0.00    +0.043 A 
ENDBRANCH  20  21
TORSDOF 7
