REMARK  Name = 4Y5H
REMARK  8 active torsions:
REMARK  status: ('A' for Active; 'I' for Inactive)
REMARK    1  A    between atoms: C_1  and  C_2
REMARK    2  A    between atoms: C_2  and  C_3
REMARK    3  A    between atoms: C_2  and  N_4
REMARK    4  A    between atoms: N_7  and  C_8
REMARK    5  A    between atoms: C_11  and  N_14
REMARK    6  A    between atoms: N_23  and  C_24
REMARK    7  A    between atoms: C_24  and  C_25
REMARK    8  A    between atoms: C_24  and  C_26
REMARK                            x       y       z     vdW  Elec       q    Type
REMARK                         _______ _______ _______ _____ _____    ______ ____
ROOT
ATOM     12  N   UNL     1       3.514 -30.599 -31.818  0.00  0.00    -0.311 N 
ATOM     13  H   UNL     1       3.839 -31.343 -32.234  0.00  0.00    +0.149 HD
ATOM     14  C   UNL     1       4.194 -29.391 -32.132  0.00  0.00    +0.217 A 
ATOM     15  N   UNL     1       3.712 -28.141 -31.917  0.00  0.00    -0.196 NA
ATOM     16  C   UNL     1       4.430 -27.028 -32.282  0.00  0.00    +0.149 A 
ATOM     17  N   UNL     1       3.907 -25.645 -32.042  0.00  0.00    -0.290 N 
ATOM     21  C   UNL     1       4.721 -24.509 -32.460  0.00  0.00    +0.253 C 
ATOM     22  O   UNL     1       4.354 -23.378 -32.313  0.00  0.00    -0.268 OA
ATOM     23  C   UNL     1       6.035 -24.674 -33.096  0.00  0.00    +0.071 C 
ATOM     24  C   UNL     1       6.528 -26.020 -33.335  0.00  0.00    +0.018 C 
ATOM     25  C   UNL     1       5.696 -27.197 -32.907  0.00  0.00    +0.036 A 
ATOM     26  C   UNL     1       6.163 -28.498 -33.115  0.00  0.00    +0.126 A 
ATOM     27  N   UNL     1       5.415 -29.562 -32.735  0.00  0.00    -0.222 NA
ENDROOT
BRANCH  12  11
ATOM      8  C   UNL     1      -0.361 -30.682 -29.943  0.00  0.00    +0.075 C 
ATOM      9  C   UNL     1       0.791 -30.073 -29.139  0.00  0.00    +0.024 C 
ATOM     10  C   UNL     1       2.031 -29.727 -29.959  0.00  0.00    +0.024 C 
ATOM     11  C   UNL     1       2.390 -30.831 -30.944  0.00  0.00    +0.073 C 
ATOM     28  C   UNL     1       1.184 -31.214 -31.779  0.00  0.00    +0.024 C 
ATOM     29  C   UNL     1       0.118 -31.786 -30.874  0.00  0.00    +0.024 C 
BRANCH   8   6
ATOM      3  N   UNL     1      -3.193 -32.370 -28.008  0.00  0.00    -0.297 N 
ATOM      4  H   UNL     1      -3.410 -31.603 -27.565  0.00  0.00    +0.150 HD
ATOM      5  C   UNL     1      -2.111 -32.317 -28.932  0.00  0.00    +0.300 C 
ATOM      6  N   UNL     1      -1.461 -31.046 -29.069  0.00  0.00    -0.297 N 
ATOM      7  H   UNL     1      -1.807 -30.369 -28.566  0.00  0.00    +0.150 HD
ATOM     30  O   UNL     1      -1.784 -33.321 -29.533  0.00  0.00    -0.253 OA
BRANCH   3   2
ATOM      1  C   UNL     1      -4.765 -33.991 -28.912  0.00  0.00    +0.027 C 
ATOM      2  C   UNL     1      -3.953 -33.543 -27.715  0.00  0.00    +0.068 C 
ATOM     31  C   UNL     1      -3.094 -34.646 -27.128  0.00  0.00    +0.027 C 
ENDBRANCH   3   2
ENDBRANCH   8   6
ENDBRANCH  12  11
BRANCH  17  18
ATOM     18  C   UNL     1       2.637 -25.458 -31.403  0.00  0.00    +0.086 C 
ATOM     19  C   UNL     1       1.511 -26.152 -32.128  0.00  0.00    +0.030 C 
ATOM     20  C   UNL     1       2.700 -25.944 -29.959  0.00  0.00    +0.030 C 
ENDBRANCH  17  18
TORSDOF 4
