REMARK  Name = 4hyh_ligand
REMARK  5 active torsions:
REMARK  status: ('A' for Active; 'I' for Inactive)
REMARK    1  A    between atoms: C04_4  and  N13_13
REMARK    2  A    between atoms: C05_5  and  N07_7
REMARK    3  A    between atoms: C14_14  and  C16_16
REMARK    4  A    between atoms: C27_27  and  O31_31
REMARK    5  A    between atoms: O31_31  and  C32_32
REMARK                            x       y       z     vdW  Elec       q    Type
REMARK                         _______ _______ _______ _____ _____    ______ ____
ROOT
ATOM     13  N   UNL     1       9.342  -2.918   9.985  0.00  0.00    -0.233 N 
ATOM     14  H   UNL     1      10.293  -3.151   9.782  0.00  0.00    +0.224 HD
ATOM     15  C   UNL     1       8.890  -1.763   9.432  0.00  0.00    +0.221 C 
ATOM     33  O   UNL     1       7.794  -1.252   9.599  0.00  0.00    -0.382 OA
ENDROOT
BRANCH  15  16
ATOM     16  C   UNL     1       9.914  -1.170   8.569  0.00  0.00    +0.073 A 
ATOM     17  C   UNL     1       9.708  -0.057   7.788  0.00  0.00    +0.093 A 
ATOM     18  S   UNL     1      11.132   0.291   6.904  0.00  0.00    +0.025 S 
ATOM     19  C   UNL     1      11.910  -1.050   7.591  0.00  0.00    +0.214 A 
ATOM     20  N   UNL     1      13.238  -1.357   7.324  0.00  0.00    -0.169 N 
ATOM     21  C   UNL     1      13.945  -2.451   7.949  0.00  0.00    +0.249 C 
ATOM     22  C   UNL     1      15.336  -2.311   7.414  0.00  0.00    -0.003 A 
ATOM     23  C   UNL     1      16.457  -3.104   7.630  0.00  0.00    -0.006 A 
ATOM     24  C   UNL     1      17.643  -2.740   6.937  0.00  0.00    +0.021 A 
ATOM     25  C   UNL     1      17.704  -1.610   6.090  0.00  0.00    +0.089 A 
ATOM     28  C   UNL     1      16.571  -0.816   5.880  0.00  0.00    +0.038 A 
ATOM     29  C   UNL     1      15.399  -1.198   6.543  0.00  0.00    +0.054 A 
ATOM     30  C   UNL     1      14.059  -0.591   6.491  0.00  0.00    +0.241 C 
ATOM     31  O   UNL     1      13.792   0.413   5.838  0.00  0.00    -0.372 OA
ATOM     32  N   UNL     1      11.182  -1.756   8.443  0.00  0.00    -0.305 NA
BRANCH  25  26
ATOM     26  O   UNL     1      18.931  -1.407   5.537  0.00  0.00    -0.325 OA
ATOM     27  C   UNL     1      19.098  -0.247   4.733  0.00  0.00    +0.230 C 
ENDBRANCH  25  26
ENDBRANCH  15  16
BRANCH  13  12
ATOM      1  C   UNL     1       7.356  -5.732  12.218  0.00  0.00    +0.045 A 
ATOM      2  C   UNL     1       8.742  -5.762  12.214  0.00  0.00    +0.026 A 
ATOM      3  C   UNL     1       9.419  -4.793  11.463  0.00  0.00    +0.085 A 
ATOM     12  C   UNL     1       8.662  -3.821  10.796  0.00  0.00    +0.113 A 
ATOM     34  C   UNL     1       7.281  -3.899  10.848  0.00  0.00    +0.081 A 
ATOM     35  N   UNL     1       6.611  -4.827  11.546  0.00  0.00    -0.333 NA
BRANCH   3   4
ATOM      4  N   UNL     1      10.796  -4.706  11.414  0.00  0.00    -0.295 N 
ATOM      5  C   UNL     1      11.304  -3.549  12.253  0.00  0.00    +0.180 C 
ATOM      6  C   UNL     1      12.805  -3.366  12.098  0.00  0.00    +0.153 C 
ATOM      7  N   UNL     1      13.569  -4.623  12.275  0.00  0.00    +0.230 N 
ATOM      8  H   UNL     1      13.464  -4.957  13.220  0.00  0.00    +0.202 HD
ATOM      9  H   UNL     1      14.545  -4.460  12.083  0.00  0.00    +0.202 HD
ATOM     10  C   UNL     1      13.032  -5.618  11.329  0.00  0.00    +0.153 C 
ATOM     11  C   UNL     1      11.560  -5.934  11.583  0.00  0.00    +0.180 C 
ENDBRANCH   3   4
ENDBRANCH  13  12
TORSDOF 4
