REMARK  Name = 1oi9_ligand
REMARK  5 active torsions:
REMARK  status: ('A' for Active; 'I' for Inactive)
REMARK    1  A    between atoms: O23_2  and  C20_12
REMARK    2  A    between atoms: C10_4  and  C11_5
REMARK    3  A    between atoms: C10_4  and  O6_17
REMARK    4  A    between atoms: C6_16  and  O6_17
REMARK    5  A    between atoms: N2_23  and  C17_24
REMARK                            x       y       z     vdW  Elec       q    Type
REMARK                         _______ _______ _______ _____ _____    ______ ____
ROOT
ATOM      1  C   UNL     1       7.943  43.794  49.804  0.00  0.00    +0.177 A 
ATOM      2  N   UNL     1       7.575  42.824  48.926  0.00  0.00    -0.255 N 
ATOM      3  H   UNL     1       8.253  42.582  48.190  0.00  0.00    +0.213 HD
ATOM     12  N   UNL     1       9.266  44.082  49.948  0.00  0.00    -0.257 NA
ATOM     13  C   UNL     1       9.643  45.060  50.801  0.00  0.00    +0.144 A 
ATOM     14  N   UNL     1      10.938  45.497  51.072  0.00  0.00    -0.240 N 
ATOM     15  H   UNL     1      11.835  45.178  50.679  0.00  0.00    +0.238 HD
ATOM     16  C   UNL     1      10.683  46.487  52.023  0.00  0.00    +0.235 A 
ATOM     17  N   UNL     1       9.344  46.707  52.349  0.00  0.00    -0.302 NA
ATOM     18  C   UNL     1       8.684  45.792  51.576  0.00  0.00    +0.104 A 
ATOM     19  C   UNL     1       7.275  45.439  51.388  0.00  0.00    +0.175 A 
ATOM     28  N   UNL     1       6.990  44.461  50.504  0.00  0.00    -0.241 NA
ENDROOT
BRANCH   2   4
ATOM      4  C   UNL     1       6.403  42.144  48.925  0.00  0.00    +0.054 A 
ATOM      5  C   UNL     1       5.642  42.057  50.083  0.00  0.00    +0.005 A 
ATOM      6  C   UNL     1       4.464  41.348  50.069  0.00  0.00    +0.009 A 
ATOM      7  C   UNL     1       4.028  40.724  48.909  0.00  0.00    +0.076 A 
ATOM      8  C   UNL     1       4.766  40.807  47.734  0.00  0.00    +0.009 A 
ATOM     11  C   UNL     1       5.974  41.513  47.750  0.00  0.00    +0.005 A 
BRANCH   7   9
ATOM      9  O   UNL     1       2.875  40.074  48.952  0.00  0.00    -0.340 OA
ATOM     10  H   UNL     1       2.694  39.696  48.100  0.00  0.00    +0.244 HD
ENDBRANCH   7   9
ENDBRANCH   2   4
BRANCH  19  20
ATOM     20  O   UNL     1       6.295  46.109  52.070  0.00  0.00    -0.293 OA
BRANCH  20  21
ATOM     21  C   UNL     1       4.933  45.943  51.686  0.00  0.00    +0.206 C 
BRANCH  21  22
ATOM     22  C   UNL     1       4.036  46.189  52.893  0.00  0.00    +0.021 C 
ATOM     23  C   UNL     1       4.540  45.460  54.142  0.00  0.00    +0.006 C 
ATOM     24  C   UNL     1       3.634  45.815  55.317  0.00  0.00    +0.000 C 
ATOM     25  C   UNL     1       2.195  45.358  55.054  0.00  0.00    +0.000 C 
ATOM     26  C   UNL     1       1.634  45.891  53.731  0.00  0.00    +0.000 C 
ATOM     27  C   UNL     1       2.607  45.753  52.548  0.00  0.00    +0.006 C 
ENDBRANCH  21  22
ENDBRANCH  20  21
ENDBRANCH  19  20
TORSDOF 5
