REMARK  Name = 5UIU
REMARK  8 active torsions:
REMARK  status: ('A' for Active; 'I' for Inactive)
REMARK    1  A    between atoms: C_2  and  C_4
REMARK    2  A    between atoms: C_4  and  O_18
REMARK    3  A    between atoms: C_8  and  O_18
REMARK    4  A    between atoms: C_9  and  O_26
REMARK    5  A    between atoms: C_11  and  C_12
REMARK    6  A    between atoms: C_12  and  C_13
REMARK    7  A    between atoms: C_20  and  O_26
REMARK    8  A    between atoms: C_21  and  C_24
REMARK                            x       y       z     vdW  Elec       q    Type
REMARK                         _______ _______ _______ _____ _____    ______ ____
ROOT
ATOM      6  C   UNL     1     -25.516 -39.105   6.465  0.00  0.00    +0.079 A 
ATOM      7  C   UNL     1     -26.403 -39.288   7.567  0.00  0.00    +0.133 A 
ATOM     10  C   UNL     1     -25.959 -39.221   8.869  0.00  0.00    +0.060 A 
ATOM     11  C   UNL     1     -24.598 -38.961   9.114  0.00  0.00    +0.047 A 
ATOM     12  C   UNL     1     -23.697 -38.831   8.050  0.00  0.00    -0.010 A 
ATOM     13  C   UNL     1     -22.320 -38.597   8.322  0.00  0.00    +0.028 A 
ATOM     14  C   UNL     1     -21.915 -38.480   9.626  0.00  0.00    +0.115 A 
ATOM     15  N   UNL     1     -22.765 -38.562  10.711  0.00  0.00    -0.221 NA
ATOM     16  C   UNL     1     -24.048 -38.801  10.437  0.00  0.00    +0.223 A 
ATOM     29  C   UNL     1     -24.181 -38.908   6.722  0.00  0.00    +0.025 A 
ENDROOT
BRANCH   6   4
ATOM      1  N   UNL     1     -27.253 -38.922   4.711  0.00  0.00    -0.325 N 
ATOM      2  H   UNL     1     -27.982 -38.994   5.399  0.00  0.00    +0.145 HD
ATOM      3  H   UNL     1     -27.532 -38.797   3.754  0.00  0.00    +0.145 HD
ATOM      4  C   UNL     1     -25.927 -39.084   5.032  0.00  0.00    +0.245 C 
ATOM      5  O   UNL     1     -25.091 -39.163   4.126  0.00  0.00    -0.270 OA
ENDBRANCH   6   4
BRANCH   7   8
ATOM      8  O   UNL     1     -27.700 -39.533   7.229  0.00  0.00    -0.494 OA
ATOM      9  C   UNL     1     -28.654 -39.588   8.266  0.00  0.00    +0.277 C 
ENDBRANCH   7   8
BRANCH  16  17
ATOM     17  O   UNL     1     -24.949 -38.920  11.447  0.00  0.00    -0.474 OA
BRANCH  17  18
ATOM     18  C   UNL     1     -24.534 -38.547  12.747  0.00  0.00    +0.253 C 
BRANCH  18  19
ATOM     19  C   UNL     1     -25.813 -38.584  13.616  0.00  0.00    +0.117 C 
ATOM     20  N   UNL     1     -26.857 -37.723  13.045  0.00  0.00    -0.306 N 
ATOM     21  H   UNL     1     -26.666 -36.755  12.813  0.00  0.00    +0.149 HD
ATOM     22  C   UNL     1     -27.898 -38.439  12.482  0.00  0.00    +0.248 C 
ATOM     23  O   UNL     1     -28.793 -37.962  11.806  0.00  0.00    -0.273 OA
ATOM     24  C   UNL     1     -27.769 -39.920  12.887  0.00  0.00    +0.256 C 
ATOM     25  F   UNL     1     -27.677 -40.658  11.766  0.00  0.00    -0.235 F 
ATOM     26  C   UNL     1     -26.498 -39.970  13.784  0.00  0.00    +0.055 C 
BRANCH  26  27
ATOM     27  C   UNL     1     -25.593 -41.168  13.518  0.00  0.00    +0.005 C 
ATOM     28  C   UNL     1     -26.290 -42.475  13.869  0.00  0.00    +0.004 C 
ENDBRANCH  26  27
ENDBRANCH  18  19
ENDBRANCH  17  18
ENDBRANCH  16  17
TORSDOF 6
