REMARK  Name = 5CXH
REMARK  9 active torsions:
REMARK  status: ('A' for Active; 'I' for Inactive)
REMARK    1  A    between atoms: C_7  and  C_8
REMARK    2  A    between atoms: C_8  and  C_9
REMARK    3  A    between atoms: C_8  and  O_26
REMARK    4  A    between atoms: C_11  and  O_28
REMARK    5  A    between atoms: C_12  and  O_27
REMARK    6  A    between atoms: C_15  and  O_28
REMARK    7  A    between atoms: C_16  and  O_27
REMARK    8  A    between atoms: C_17  and  C_20
REMARK    9  A    between atoms: C_19  and  O_26
REMARK                            x       y       z     vdW  Elec       q    Type
REMARK                         _______ _______ _______ _____ _____    ______ ____
ROOT
ATOM      1  C   UNL     1       3.397   0.552  14.394  0.00  0.00    +0.100 A 
ATOM      2  S   UNL     1       5.055   1.134  14.363  0.00  0.00    -0.070 S 
ATOM      3  C   UNL     1       5.345  -0.193  15.490  0.00  0.00    +0.157 A 
ATOM      4  N   UNL     1       4.345  -0.866  15.765  0.00  0.00    -0.247 NA
ATOM      5  C   UNL     1       2.332   1.125  13.698  0.00  0.00    +0.232 A 
ATOM     15  N   UNL     1       1.151   0.561  13.827  0.00  0.00    -0.212 NA
ATOM     16  C   UNL     1       0.929  -0.519  14.586  0.00  0.00    +0.077 A 
ATOM     27  C   UNL     1       1.948  -1.111  15.316  0.00  0.00    +0.057 A 
ATOM     28  C   UNL     1       3.201  -0.532  15.197  0.00  0.00    +0.085 A 
ENDROOT
BRANCH  16  17
ATOM     17  C   UNL     1      -0.451  -1.009  14.699  0.00  0.00    +0.004 A 
ATOM     18  C   UNL     1      -0.775  -2.051  15.554  0.00  0.00    +0.014 A 
ATOM     19  C   UNL     1      -2.093  -2.407  15.670  0.00  0.00    +0.050 A 
ATOM     20  C   UNL     1      -3.106  -1.724  14.995  0.00  0.00    +0.162 A 
ATOM     23  C   UNL     1      -2.780  -0.655  14.198  0.00  0.00    +0.162 A 
ATOM     26  C   UNL     1      -1.453  -0.294  14.071  0.00  0.00    +0.059 A 
BRANCH  20  21
ATOM     21  O   UNL     1      -4.446  -2.054  15.116  0.00  0.00    -0.491 OA
ATOM     22  C   UNL     1      -4.892  -2.851  16.188  0.00  0.00    +0.277 C 
ENDBRANCH  20  21
BRANCH  23  24
ATOM     24  O   UNL     1      -3.804  -0.012  13.572  0.00  0.00    -0.491 OA
ATOM     25  C   UNL     1      -3.715   1.243  12.999  0.00  0.00    +0.277 C 
ENDBRANCH  23  24
ENDBRANCH  16  17
BRANCH   5   6
ATOM      6  O   UNL     1       2.508   2.231  12.917  0.00  0.00    -0.472 OA
BRANCH   6   7
ATOM      7  C   UNL     1       1.367   2.957  12.479  0.00  0.00    +0.181 C 
ATOM      8  C   UNL     1       0.841   2.413  11.114  0.00  0.00    +0.052 C 
BRANCH   7   9
ATOM      9  C   UNL     1       1.745   4.471  12.471  0.00  0.00    +0.077 C 
ATOM     10  C   UNL     1       3.006   4.734  11.639  0.00  0.00    +0.110 C 
ATOM     11  C   UNL     1       4.005   5.118  12.683  0.00  0.00    +0.236 C 
ATOM     12  O   UNL     1       5.133   5.289  12.466  0.00  0.00    -0.274 OA
ATOM     13  N   UNL     1       3.408   5.254  13.843  0.00  0.00    -0.193 NA
ATOM     14  C   UNL     1       2.035   5.043  13.859  0.00  0.00    +0.081 C 
ENDBRANCH   7   9
ENDBRANCH   6   7
ENDBRANCH   5   6
TORSDOF 6
