REMARK  Name = 5TQ7
REMARK  6 active torsions:
REMARK  status: ('A' for Active; 'I' for Inactive)
REMARK    1  A    between atoms: C_5  and  N_14
REMARK    2  A    between atoms: C_7  and  N_14
REMARK    3  A    between atoms: C_11  and  C_12
REMARK    4  A    between atoms: N_14  and  C_15
REMARK    5  A    between atoms: C_27  and  S_29
REMARK    6  A    between atoms: S_29  and  C_32
REMARK                            x       y       z     vdW  Elec       q    Type
REMARK                         _______ _______ _______ _____ _____    ______ ____
ROOT
ATOM      9  C   UNL     1      14.763  -4.536  12.353  0.00  0.00    +0.155 C 
ATOM     10  C   UNL     1      14.553  -3.043  12.020  0.00  0.00    +0.136 C 
ATOM     11  N   UNL     1      13.224  -2.933  11.409  0.00  0.00    -0.284 N 
ATOM     12  C   UNL     1      12.450  -4.167  11.572  0.00  0.00    +0.111 C 
ATOM     13  C   UNL     1      13.017  -1.940  10.504  0.00  0.00    +0.305 C 
ATOM     14  O   UNL     1      13.914  -1.198  10.134  0.00  0.00    -0.252 OA
ATOM     15  N   UNL     1      11.715  -1.846  10.064  0.00  0.00    -0.284 N 
ATOM     16  C   UNL     1      11.566  -0.859   8.989  0.00  0.00    +0.132 C 
ATOM     17  C   UNL     1      10.222  -1.020   8.302  0.00  0.00    +0.095 C 
ATOM     29  C   UNL     1       9.142  -0.730   9.352  0.00  0.00    +0.009 C 
ATOM     30  C   UNL     1       9.301  -1.647  10.563  0.00  0.00    +0.024 C 
ATOM     31  C   UNL     1       9.087   0.727   9.792  0.00  0.00    +0.009 C 
ATOM     32  C   UNL     1      10.723  -1.624  11.121  0.00  0.00    +0.110 C 
ATOM     33  C   UNL     1      13.519  -5.231  11.789  0.00  0.00    +0.047 C 
ENDROOT
BRANCH   9   6
ATOM      6  S   UNL     1      16.271  -5.178  11.624  0.00  0.00    +0.001 S 
ATOM      7  O   UNL     1      17.253  -4.128  11.598  0.00  0.00    -0.169 OA
ATOM      8  O   UNL     1      15.933  -5.841  10.395  0.00  0.00    -0.169 OA
BRANCH   6   5
ATOM      1  C   UNL     1      16.903  -8.660  13.507  0.00  0.00    +0.002 A 
ATOM      2  C   UNL     1      17.546  -8.262  14.670  0.00  0.00    +0.000 A 
ATOM      3  C   UNL     1      17.825  -6.922  14.882  0.00  0.00    +0.002 A 
ATOM      4  C   UNL     1      17.450  -5.974  13.945  0.00  0.00    +0.027 A 
ATOM      5  C   UNL     1      16.805  -6.388  12.788  0.00  0.00    +0.088 A 
ATOM     34  C   UNL     1      16.538  -7.725  12.553  0.00  0.00    +0.027 A 
ENDBRANCH   6   5
ENDBRANCH   9   6
BRANCH  17  18
ATOM     18  N   UNL     1      10.018  -0.178   7.105  0.00  0.00    -0.313 N 
ATOM     28  C   UNL     1      10.734   1.091   7.026  0.00  0.00    +0.131 C 
BRANCH  18  19
ATOM     19  C   UNL     1       9.152  -0.518   6.094  0.00  0.00    +0.134 A 
ATOM     20  N   UNL     1       8.986   0.377   5.111  0.00  0.00    -0.220 NA
ATOM     21  C   UNL     1       7.973   0.085   4.291  0.00  0.00    +0.225 A 
ATOM     22  N   UNL     1       7.135  -0.954   4.331  0.00  0.00    -0.216 NA
ATOM     23  C   UNL     1       7.379  -1.843   5.303  0.00  0.00    +0.165 A 
ATOM     24  N   UNL     1       6.751  -3.044   5.496  0.00  0.00    -0.235 NA
ATOM     25  C   UNL     1       7.344  -3.684   6.558  0.00  0.00    +0.114 A 
ATOM     26  C   UNL     1       8.367  -2.928   7.042  0.00  0.00    +0.035 A 
ATOM     27  C   UNL     1       8.399  -1.731   6.250  0.00  0.00    +0.060 A 
ENDBRANCH  18  19
ENDBRANCH  17  18
TORSDOF 4
