REMARK  Name = 1UEI
REMARK  10 active torsions:
REMARK  status: ('A' for Active; 'I' for Inactive)
REMARK    1  A    between atoms: P_1  and  O_4
REMARK    2  A    between atoms: P_1  and  O_5
REMARK    3  A    between atoms: O_4  and  P_6
REMARK    4  A    between atoms: O_5  and  C_14
REMARK    5  A    between atoms: P_6  and  O_9
REMARK    6  A    between atoms: O_9  and  P_10
REMARK    7  A    between atoms: C_14  and  C_15
REMARK    8  A    between atoms: C_17  and  N_22
REMARK    9  A    between atoms: C_18  and  O_19
REMARK   10  A    between atoms: C_20  and  O_21
REMARK                            x       y       z     vdW  Elec       q    Type
REMARK                         _______ _______ _______ _____ _____    ______ ____
ROOT
ATOM      4  C   UNL     1      11.135  36.351  32.644  0.00  0.00    +0.178 C 
ATOM      5  C   UNL     1      10.597  35.078  32.109  0.00  0.00    +0.178 C 
ATOM      8  C   UNL     1       9.547  34.706  33.106  0.00  0.00    +0.195 C 
ATOM     11  C   UNL     1       9.812  35.638  34.324  0.00  0.00    +0.255 C 
ATOM     21  O   UNL     1      10.410  36.806  33.782  0.00  0.00    -0.346 OA
ENDROOT
BRANCH  11  12
ATOM     12  N   UNL     1       8.550  35.910  35.032  0.00  0.00    -0.272 N 
ATOM     13  C   UNL     1       8.446  35.538  36.391  0.00  0.00    +0.331 C 
ATOM     14  N   UNL     1       7.218  35.809  36.967  0.00  0.00    -0.275 N 
ATOM     15  H   UNL     1       7.109  35.542  37.997  0.00  0.00    +0.173 HD
ATOM     16  C   UNL     1       6.093  36.397  36.351  0.00  0.00    +0.254 C 
ATOM     17  C   UNL     1       6.267  36.753  34.968  0.00  0.00    +0.088 C 
ATOM     18  O   UNL     1       5.054  36.571  37.003  0.00  0.00    -0.268 OA
ATOM     19  O   UNL     1       9.348  35.020  37.026  0.00  0.00    -0.246 OA
ATOM     20  C   UNL     1       7.484  36.494  34.365  0.00  0.00    +0.098 C 
ENDBRANCH  11  12
BRANCH   5   6
ATOM      6  O   UNL     1      11.744  34.242  32.084  0.00  0.00    -0.386 OA
ATOM      7  H   UNL     1      12.475  34.668  31.461  0.00  0.00    +0.210 HD
ENDBRANCH   5   6
BRANCH   8   9
ATOM      9  O   UNL     1       9.596  33.334  33.505  0.00  0.00    -0.385 OA
ATOM     10  H   UNL     1      10.545  33.117  33.900  0.00  0.00    +0.210 HD
ENDBRANCH   8   9
BRANCH   4   3
ATOM      3  C   UNL     1      11.463  37.195  31.481  0.00  0.00    +0.202 C 
BRANCH   3   2
ATOM      2  O   UNL     1      11.222  38.548  31.534  0.00  0.00    -0.325 OA
BRANCH   2   1
ATOM      1  P   UNL     1      12.694  39.311  31.172  0.00  0.00    +0.218 P 
ATOM     31  O   UNL     1      13.812  38.425  31.775  0.00  0.00    -0.437 OA
ATOM     32  O   UNL     1      12.812  39.289  29.630  0.00  0.00    -0.517 OA
BRANCH   1  22
ATOM     22  O   UNL     1      12.927  40.799  31.869  0.00  0.00    -0.270 OA
BRANCH  22  23
ATOM     23  P   UNL     1      13.289  42.069  30.911  0.00  0.00    +0.221 P 
ATOM     29  O   UNL     1      12.090  42.376  29.958  0.00  0.00    -0.437 OA
ATOM     30  O   UNL     1      13.524  43.230  31.881  0.00  0.00    -0.517 OA
BRANCH  23  24
ATOM     24  O   UNL     1      14.646  41.605  30.064  0.00  0.00    -0.314 OA
BRANCH  24  25
ATOM     25  P   UNL     1      16.207  42.169  30.157  0.00  0.00    -0.007 P 
ATOM     26  O   UNL     1      16.729  41.953  31.605  0.00  0.00    -0.577 OA
ATOM     27  O   UNL     1      16.898  41.287  29.115  0.00  0.00    -0.637 OA
ATOM     28  O   UNL     1      16.165  43.691  29.777  0.00  0.00    -0.577 OA
ENDBRANCH  24  25
ENDBRANCH  23  24
ENDBRANCH  22  23
ENDBRANCH   1  22
ENDBRANCH   2   1
ENDBRANCH   3   2
ENDBRANCH   4   3
TORSDOF 10
