REMARK  Name = 2V0D
REMARK  2 active torsions:
REMARK  status: ('A' for Active; 'I' for Inactive)
REMARK    1  A    between atoms: C_6  and  C_7
REMARK    2  A    between atoms: C_7  and  C_8
REMARK                            x       y       z     vdW  Elec       q    Type
REMARK                         _______ _______ _______ _____ _____    ______ ____
ROOT
ATOM      4  C   UNL     1      13.127  -8.853  12.149  0.00  0.00    +0.130 C 
ATOM      5  C   UNL     1      12.280  -9.732  11.474  0.00  0.00    +0.257 C 
ATOM      6  N   UNL     1      11.861 -10.757  12.308  0.00  0.00    -0.158 NA
ATOM      7  C   UNL     1      12.341 -10.618  13.586  0.00  0.00    +0.145 C 
ATOM      8  N   UNL     1      12.103 -11.445  14.549  0.00  0.00    -0.340 N 
ATOM      9  H   UNL     1      11.467 -12.290  14.384  0.00  0.00    +0.144 HD
ATOM     10  H   UNL     1      12.542 -11.286  15.512  0.00  0.00    +0.144 HD
ATOM     11  O   UNL     1      11.985  -9.641  10.290  0.00  0.00    -0.272 OA
ATOM     12  S   UNL     1      13.295  -9.312  13.756  0.00  0.00    -0.075 S 
ENDROOT
BRANCH   4   3
ATOM      3  C   UNL     1      13.665  -7.651  11.636  0.00  0.00    +0.084 C 
BRANCH   3   2
ATOM      1  C   UNL     1      13.854  -8.372   9.297  0.00  0.00    +0.023 A 
ATOM      2  C   UNL     1      13.810  -7.353  10.261  0.00  0.00    +0.043 A 
ATOM     13  N   UNL     1      14.070  -6.053   9.893  0.00  0.00    -0.260 NA
ATOM     14  C   UNL     1      14.307  -5.729   8.590  0.00  0.00    +0.111 A 
ATOM     15  C   UNL     1      14.325  -6.723   7.597  0.00  0.00    +0.020 A 
ATOM     16  C   UNL     1      14.103  -8.038   7.942  0.00  0.00    +0.003 A 
ENDBRANCH   3   2
ENDBRANCH   4   3
TORSDOF 2
