REMARK  Name = 3qcq_ligand
REMARK  4 active torsions:
REMARK  status: ('A' for Active; 'I' for Inactive)
REMARK    1  A    between atoms: C11_6  and  C6_8
REMARK    2  A    between atoms: C15_10  and  N16_18
REMARK    3  A    between atoms: C1_12  and  C2_13
REMARK    4  A    between atoms: C2_13  and  N3_20
REMARK                            x       y       z     vdW  Elec       q    Type
REMARK                         _______ _______ _______ _____ _____    ______ ____
ROOT
ATOM      1  C   UNL     1     -40.649  16.472  12.740  0.00  0.00    +0.030 A 
ATOM      2  C   UNL     1     -40.631  15.097  12.543  0.00  0.00    +0.079 A 
ATOM      3  C   UNL     1     -39.676  14.050  12.709  0.00  0.00    +0.241 A 
ATOM      7  N   UNL     1     -40.196  12.866  12.359  0.00  0.00    -0.255 N 
ATOM      8  H   UNL     1     -39.735  11.945  12.374  0.00  0.00    +0.254 HD
ATOM      9  N   UNL     1     -41.457  13.152  11.984  0.00  0.00    -0.440 NA
ATOM     10  C   UNL     1     -41.772  14.479  12.074  0.00  0.00    -0.048 A 
ATOM     11  C   UNL     1     -42.940  15.132  11.767  0.00  0.00    +0.012 A 
ATOM     12  C   UNL     1     -42.945  16.496  11.960  0.00  0.00    -0.001 A 
ATOM     26  C   UNL     1     -41.822  17.128  12.446  0.00  0.00    +0.018 A 
ENDROOT
BRANCH  12  13
ATOM     13  C   UNL     1     -44.155  17.214  11.623  0.00  0.00    +0.038 A 
ATOM     14  N   UNL     1     -45.028  16.485  10.923  0.00  0.00    -0.271 NA
ATOM     15  C   UNL     1     -46.194  17.056  10.605  0.00  0.00    +0.167 A 
ATOM     16  N   UNL     1     -47.098  16.283   9.874  0.00  0.00    -0.307 N 
ATOM     17  H   UNL     1     -48.007  16.679   9.595  0.00  0.00    +0.182 HD
ATOM     18  H   UNL     1     -46.856  15.316   9.614  0.00  0.00    +0.182 HD
ATOM     19  N   UNL     1     -46.535  18.310  10.930  0.00  0.00    -0.245 NA
ATOM     20  C   UNL     1     -45.648  19.032  11.626  0.00  0.00    +0.111 A 
ATOM     21  N   UNL     1     -45.988  20.346  11.978  0.00  0.00    -0.305 N 
ATOM     22  H   UNL     1     -46.895  20.795  11.785  0.00  0.00    +0.184 HD
ATOM     25  C   UNL     1     -44.424  18.512  12.003  0.00  0.00    +0.054 A 
BRANCH  21  23
ATOM     23  C   UNL     1     -44.870  20.979  12.656  0.00  0.00    +0.130 C 
ATOM     24  C   UNL     1     -45.044  20.847  14.149  0.00  0.00    +0.030 C 
ENDBRANCH  21  23
ENDBRANCH  12  13
BRANCH   3   4
ATOM      4  N   UNL     1     -38.409  14.259  13.166  0.00  0.00    -0.261 N 
ATOM      5  H   UNL     1     -37.760  13.465  13.267  0.00  0.00    +0.210 HD
ATOM      6  H   UNL     1     -38.100  15.211  13.411  0.00  0.00    +0.210 HD
ENDBRANCH   3   4
TORSDOF 3
