REMARK  Name = 3wf5_ligand
REMARK  1 active torsions:
REMARK  status: ('A' for Active; 'I' for Inactive)
REMARK    1  A    between atoms: C08_8  and  C09_9
REMARK                            x       y       z     vdW  Elec       q    Type
REMARK                         _______ _______ _______ _____ _____    ______ ____
ROOT
ATOM      1  N   UNL     1     -13.151   7.180 -14.858  0.00  0.00    -0.279 NA
ATOM      2  C   UNL     1     -12.882   7.291 -13.518  0.00  0.00    +0.064 A 
ATOM      3  N   UNL     1     -12.557   6.293 -12.613  0.00  0.00    -0.313 NA
ATOM      4  N   UNL     1     -12.343   6.816 -11.373  0.00  0.00    -0.242 N 
ATOM      5  H   UNL     1     -12.093   6.289 -10.524  0.00  0.00    +0.294 HD
ATOM      6  C   UNL     1     -12.520   8.155 -11.462  0.00  0.00    +0.253 A 
ATOM      7  C   UNL     1     -12.873   8.518 -12.812  0.00  0.00    +0.102 A 
ATOM      8  C   UNL     1     -13.164   9.677 -13.550  0.00  0.00    +0.147 A 
ATOM      9  N   UNL     1     -13.217  10.945 -12.928  0.00  0.00    -0.285 N 
ATOM     10  C   UNL     1     -13.536  11.114 -11.498  0.00  0.00    +0.141 C 
ATOM     11  C   UNL     1     -12.506  12.039 -10.884  0.00  0.00    +0.052 C 
ATOM     12  C   UNL     1     -12.157  13.360 -11.543  0.00  0.00    +0.102 C 
ATOM     23  C   UNL     1     -12.049  13.125 -13.070  0.00  0.00    +0.052 C 
ATOM     24  C   UNL     1     -13.056  12.191 -13.748  0.00  0.00    +0.141 C 
ATOM     25  N   UNL     1     -13.441   9.579 -14.861  0.00  0.00    -0.250 NA
ATOM     26  C   UNL     1     -13.417   8.349 -15.421  0.00  0.00    +0.181 A 
ENDROOT
BRANCH  12  13
ATOM     13  C   UNL     1     -11.044  14.154 -11.011  0.00  0.00    +0.124 A 
ATOM     14  N   UNL     1     -10.144  13.865 -10.077  0.00  0.00    -0.318 NA
ATOM     15  C   UNL     1      -9.284  14.978  -9.994  0.00  0.00    +0.021 A 
ATOM     16  C   UNL     1      -8.163  15.213  -9.179  0.00  0.00    -0.012 A 
ATOM     17  C   UNL     1      -7.501  16.407  -9.318  0.00  0.00    -0.027 A 
ATOM     18  C   UNL     1      -7.926  17.381 -10.238  0.00  0.00    -0.024 A 
ATOM     19  C   UNL     1      -9.021  17.196 -11.057  0.00  0.00    +0.012 A 
ATOM     20  C   UNL     1      -9.688  15.964 -10.921  0.00  0.00    +0.078 A 
ATOM     21  N   UNL     1     -10.819  15.434 -11.581  0.00  0.00    -0.246 N 
ATOM     22  H   UNL     1     -11.369  15.885 -12.326  0.00  0.00    +0.232 HD
ENDBRANCH  12  13
TORSDOF 1
