REMARK  Name = 6S11
REMARK  4 active torsions:
REMARK  status: ('A' for Active; 'I' for Inactive)
REMARK    1  A    between atoms: C2_2  and  C7_7
REMARK    2  A    between atoms: C4_4  and  O_16
REMARK    3  A    between atoms: C6_6  and  O_16
REMARK    4  A    between atoms: C13_11  and  C12_17
REMARK                            x       y       z     vdW  Elec       q    Type
REMARK                         _______ _______ _______ _____ _____    ______ ____
ROOT
ATOM     12  C   UNL     1      71.322 -57.776  -2.428  0.00  0.00    +0.100 A 
ATOM     13  N   UNL     1      70.388 -57.383  -3.342  0.00  0.00    -0.200 N 
ATOM     14  N   UNL     1      69.491 -58.214  -3.997  0.00  0.00    -0.250 NA
ATOM     15  C   UNL     1      68.612 -57.598  -4.731  0.00  0.00    +0.000 A 
ATOM     22  C   UNL     1      68.592 -56.159  -4.881  0.00  0.00    -0.100 A 
ATOM     23  C   UNL     1      69.488 -55.373  -4.235  0.00  0.00    -0.100 A 
ATOM     24  C   UNL     1      70.444 -56.015  -3.414  0.00  0.00    +0.200 A 
ATOM     25  N   UNL     1      71.390 -55.506  -2.605  0.00  0.00    -0.450 NA
ATOM     26  C   UNL     1      71.929 -56.631  -2.001  0.00  0.00    +0.000 A 
ENDROOT
BRANCH  12  11
ATOM      1  C   UNL     1      71.649 -59.465  -0.631  0.00  0.00    -0.130 A 
ATOM      2  C   UNL     1      71.896 -60.767  -0.228  0.00  0.00    -0.130 A 
ATOM      3  C   UNL     1      71.999 -61.785  -1.164  0.00  0.00    -0.130 A 
ATOM      4  C   UNL     1      71.858 -61.483  -2.510  0.00  0.00    +0.185 A 
ATOM     10  C   UNL     1      71.573 -60.192  -2.923  0.00  0.00    -0.130 A 
ATOM     11  C   UNL     1      71.490 -59.168  -1.982  0.00  0.00    +0.000 A 
BRANCH   4   5
ATOM      5  O   UNL     1      72.142 -62.436  -3.486  0.00  0.00    -0.185 OA
BRANCH   5   6
ATOM      6  C   UNL     1      71.164 -63.276  -3.764  0.00  0.00    +0.900 C 
ATOM      7  F   UNL     1      70.042 -62.664  -4.021  0.00  0.00    -0.300 F 
ATOM      8  F   UNL     1      70.931 -64.054  -2.769  0.00  0.00    -0.300 F 
ATOM      9  F   UNL     1      71.451 -64.054  -4.756  0.00  0.00    -0.300 F 
ENDBRANCH   5   6
ENDBRANCH   4   5
ENDBRANCH  12  11
BRANCH  15  16
ATOM     16  C   UNL     1      67.608 -58.452  -5.389  0.00  0.00    +0.000 A 
ATOM     17  C   UNL     1      67.619 -59.832  -5.196  0.00  0.00    -0.130 A 
ATOM     18  C   UNL     1      66.718 -60.608  -5.911  0.00  0.00    +0.250 A 
ATOM     19  N   UNL     1      65.819 -60.106  -6.768  0.00  0.00    -0.760 NA
ATOM     20  C   UNL     1      65.803 -58.779  -6.922  0.00  0.00    +0.250 A 
ATOM     21  C   UNL     1      66.671 -57.921  -6.268  0.00  0.00    -0.130 A 
ENDBRANCH  15  16
TORSDOF 4
