REMARK  Name = 53W
REMARK  8 active torsions:
REMARK  status: ('A' for Active; 'I' for Inactive)
REMARK    1  A    between atoms: C2_2  and  C5_30
REMARK    2  A    between atoms: C12_6  and  C13_7
REMARK    3  A    between atoms: C12_6  and  N2_22
REMARK    4  A    between atoms: C13_7  and  N3_23
REMARK    5  A    between atoms: C11_9  and  C18_21
REMARK    6  A    between atoms: C23_14  and  O2_18
REMARK    7  A    between atoms: C20_19  and  C19_20
REMARK    8  A    between atoms: C19_20  and  C18_21
REMARK                            x       y       z     vdW  Elec       q    Type
REMARK                         _______ _______ _______ _____ _____    ______ ____
ROOT
ATOM      3  C   UNL     1      14.785 -11.337  -6.052  0.00  0.00    +0.005 A 
ATOM      4  C   UNL     1      14.726 -11.242  -4.664  0.00  0.00    +0.002 A 
ATOM      5  C   UNL     1      15.061 -10.076  -4.009  0.00  0.00    +0.019 A 
ATOM      6  C   UNL     1      15.472  -9.000  -4.776  0.00  0.00    +0.079 A 
ATOM      7  N   UNL     1      15.775  -7.692  -4.450  0.00  0.00    -0.313 N 
ATOM     16  C   UNL     1      15.974  -7.033  -5.637  0.00  0.00    +0.121 A 
ATOM     27  N   UNL     1      15.876  -7.823  -6.686  0.00  0.00    -0.231 NA
ATOM     28  C   UNL     1      15.549  -9.067  -6.161  0.00  0.00    +0.098 A 
ATOM     29  C   UNL     1      15.210 -10.249  -6.816  0.00  0.00    +0.021 A 
ENDROOT
BRANCH   3   2
ATOM      1  C   UNL     1      13.369 -12.753  -7.731  0.00  0.00    +0.101 A 
ATOM      2  C   UNL     1      14.348 -12.583  -6.701  0.00  0.00    +0.050 A 
ATOM     30  C   UNL     1      14.760 -13.840  -6.395  0.00  0.00    +0.154 A 
ATOM     31  C   UNL     1      15.663 -14.405  -5.365  0.00  0.00    +0.075 C 
ATOM     32  O   UNL     1      14.113 -14.725  -7.178  0.00  0.00    -0.358 OA
ATOM     33  N   UNL     1      13.224 -14.010  -8.028  0.00  0.00    -0.082 NA
ATOM     34  C   UNL     1      12.548 -11.709  -8.414  0.00  0.00    +0.056 C 
ENDBRANCH   3   2
BRANCH   7   8
ATOM      8  C   UNL     1      15.946  -7.262  -3.058  0.00  0.00    +0.125 C 
BRANCH   8   9
ATOM      9  C   UNL     1      17.136  -7.974  -2.409  0.00  0.00    +0.097 C 
BRANCH   9  10
ATOM     10  N   UNL     1      17.658  -7.528  -1.104  0.00  0.00    -0.267 NA
ATOM     11  C   UNL     1      17.530  -6.089  -0.855  0.00  0.00    +0.105 C 
ATOM     12  C   UNL     1      18.450  -5.326  -1.765  0.00  0.00    +0.160 C 
ATOM     13  O   UNL     1      19.808  -5.714  -1.572  0.00  0.00    -0.351 OA
ATOM     14  C   UNL     1      19.971  -7.110  -1.801  0.00  0.00    +0.160 C 
ATOM     15  C   UNL     1      19.059  -7.936  -0.927  0.00  0.00    +0.105 C 
ENDBRANCH   9  10
ENDBRANCH   8   9
ENDBRANCH   7   8
BRANCH  16  17
ATOM     17  C   UNL     1      16.147  -5.556  -5.735  0.00  0.00    +0.069 C 
BRANCH  17  18
ATOM     18  C   UNL     1      17.164  -5.120  -6.792  0.00  0.00    +0.034 C 
BRANCH  18  19
ATOM     19  C   UNL     1      18.561  -5.605  -6.475  0.00  0.00    -0.021 A 
ATOM     20  C   UNL     1      19.213  -5.205  -5.316  0.00  0.00    -0.001 A 
ATOM     21  C   UNL     1      20.465  -5.701  -4.989  0.00  0.00    +0.037 A 
ATOM     22  C   UNL     1      21.102  -6.578  -5.854  0.00  0.00    +0.139 A 
ATOM     25  C   UNL     1      20.486  -6.945  -7.036  0.00  0.00    +0.037 A 
ATOM     26  C   UNL     1      19.219  -6.472  -7.329  0.00  0.00    -0.001 A 
BRANCH  22  23
ATOM     23  O   UNL     1      22.331  -7.172  -5.700  0.00  0.00    -0.471 OA
ATOM     24  C   UNL     1      23.067  -6.918  -4.503  0.00  0.00    +0.253 C 
ENDBRANCH  22  23
ENDBRANCH  18  19
ENDBRANCH  17  18
ENDBRANCH  16  17
TORSDOF 8
