REMARK  Name = ADX
REMARK  12 active torsions:
REMARK  status: ('A' for Active; 'I' for Inactive)
REMARK    1  A    between atoms: SB_1  and  O3A_8
REMARK    2  A    between atoms: PA_5  and  O3A_8
REMARK    3  A    between atoms: PA_5  and  O5'_9
REMARK    4  A    between atoms: O5'_9  and  C5'_10
REMARK    5  A    between atoms: C5'_10  and  C4'_11
REMARK    6  A    between atoms: C1'_17  and  N9_18
REMARK    7  A    between atoms: SB_28  and  O3A_35
REMARK    8  A    between atoms: PA_32  and  O3A_35
REMARK    9  A    between atoms: PA_32  and  O5'_36
REMARK   10  A    between atoms: O5'_36  and  C5'_37
REMARK   11  A    between atoms: C5'_37  and  C4'_38
REMARK   12  A    between atoms: C1'_44  and  N9_45
REMARK                            x       y       z     vdW  Elec       q    Type
REMARK                         _______ _______ _______ _____ _____    ______ ____
ROOT
ATOM      6  C   UNL     1     -25.773   6.213  94.119  0.00  0.00    +0.180 C 
ATOM      7  O   UNL     1     -26.716   7.024  94.843  0.00  0.00    -0.331 OA
ATOM      8  C   UNL     1     -27.254   6.319  95.996  0.00  0.00    +0.241 C 
ATOM      9  C   UNL     1     -26.702   4.904  95.958  0.00  0.00    +0.234 C 
ATOM     10  O   UNL     1     -25.685   4.801  96.960  0.00  0.00    -0.216 OA
ATOM     21  C   UNL     1     -26.148   4.794  94.543  0.00  0.00    +0.216 C 
ATOM     22  O   UNL     1     -25.052   3.899  94.365  0.00  0.00    -0.218 OA
ENDROOT
BRANCH   8  11
ATOM     11  N   UNL     1     -28.726   6.409  95.865  0.00  0.00    -0.269 N 
ATOM     12  C   UNL     1     -29.513   7.142  96.677  0.00  0.00    +0.182 A 
ATOM     13  N   UNL     1     -30.798   7.094  96.277  0.00  0.00    -0.219 NA
ATOM     14  C   UNL     1     -30.841   6.331  95.171  0.00  0.00    +0.152 A 
ATOM     15  C   UNL     1     -31.897   5.872  94.245  0.00  0.00    +0.192 A 
ATOM     16  N   UNL     1     -33.174   6.260  94.455  0.00  0.00    -0.105 NA
ATOM     17  N   UNL     1     -31.535   5.091  93.196  0.00  0.00    -0.204 NA
ATOM     18  C   UNL     1     -30.266   4.706  92.994  0.00  0.00    +0.202 A 
ATOM     19  N   UNL     1     -29.253   5.099  93.788  0.00  0.00    -0.205 NA
ATOM     20  C   UNL     1     -29.474   5.897  94.879  0.00  0.00    +0.169 A 
ENDBRANCH   8  11
BRANCH   6   5
ATOM      5  C   UNL     1     -25.909   6.262  92.597  0.00  0.00    +0.181 C 
BRANCH   5   4
ATOM      4  O   UNL     1     -25.883   7.574  92.064  0.00  0.00    -0.310 OA
BRANCH   4   3
ATOM      3  P   UNL     1     -25.563   7.875  90.516  0.00  0.00    +0.238 P 
ATOM     23  O   UNL     1     -25.233   9.337  90.403  0.00  0.00    -0.436 OA
ATOM     24  O   UNL     1     -24.601   6.886  89.956  0.00  0.00    -0.516 OA
BRANCH   3   2
ATOM      2  O   UNL     1     -27.066   7.590  89.962  0.00  0.00    -0.195 OA
BRANCH   2   1
ATOM      1  S   UNL     1     -27.567   7.953  88.445  0.00  0.00    +0.005 S 
ATOM     25  O   UNL     1     -28.034   9.360  88.443  0.00  0.00    -0.268 OA
ATOM     26  O   UNL     1     -28.666   7.049  88.137  0.00  0.00    -0.345 OA
ATOM     27  O   UNL     1     -26.480   7.846  87.467  0.00  0.00    -0.345 OA
ENDBRANCH   2   1
ENDBRANCH   3   2
ENDBRANCH   4   3
ENDBRANCH   5   4
ENDBRANCH   6   5
TORSDOF 6
