REMARK  Name = 5CF4
REMARK  9 active torsions:
REMARK  status: ('A' for Active; 'I' for Inactive)
REMARK    1  A    between atoms: C_2  and  C_17
REMARK    2  A    between atoms: C_3  and  N_24
REMARK    3  A    between atoms: C_4  and  N_24
REMARK    4  A    between atoms: C_9  and  C_26
REMARK    5  A    between atoms: C_9  and  C_27
REMARK    6  A    between atoms: N_20  and  C_22
REMARK    7  A    between atoms: N_21  and  C_26
REMARK    8  A    between atoms: C_27  and  O_28
REMARK    9  A    between atoms: O_28  and  C_29
REMARK                            x       y       z     vdW  Elec       q    Type
REMARK                         _______ _______ _______ _____ _____    ______ ____
ROOT
ATOM     10  C   UNL     1      -1.821  47.560  -0.352  0.00  0.00    +0.104 A 
ATOM     11  N   UNL     1      -1.582  46.829   0.810  0.00  0.00    -0.335 N 
ATOM     12  H   UNL     1      -0.671  46.820   1.371  0.00  0.00    +0.168 HD
ATOM     13  C   UNL     1      -2.724  46.120   1.110  0.00  0.00    +0.143 A 
ATOM     14  N   UNL     1      -2.863  45.375   2.214  0.00  0.00    -0.212 NA
ATOM     15  C   UNL     1      -4.022  44.716   2.382  0.00  0.00    +0.149 A 
ATOM     16  N   UNL     1      -4.204  44.045   3.531  0.00  0.00    -0.327 N 
ATOM     17  H   UNL     1      -5.068  43.421   3.633  0.00  0.00    +0.147 HD
ATOM     23  C   UNL     1      -5.017  44.764   1.375  0.00  0.00    +0.129 A 
ATOM     24  N   UNL     1      -6.200  44.049   1.275  0.00  0.00    -0.232 NA
ATOM     25  C   UNL     1      -6.700  44.428   0.124  0.00  0.00    +0.200 A 
ATOM     26  N   UNL     1      -5.948  45.350  -0.540  0.00  0.00    -0.333 N 
ATOM     27  C   UNL     1      -6.271  45.969  -1.820  0.00  0.00    +0.150 C 
ATOM     28  C   UNL     1      -4.846  45.581   0.256  0.00  0.00    +0.083 A 
ATOM     29  C   UNL     1      -3.670  46.353   0.102  0.00  0.00    +0.045 A 
ATOM     30  C   UNL     1      -3.091  47.290  -0.799  0.00  0.00    +0.044 A 
ENDROOT
BRANCH  10   1
ATOM      1  C   UNL     1      -0.893  48.533  -0.979  0.00  0.00    +0.263 C 
ATOM      2  N   UNL     1      -0.615  48.556  -2.313  0.00  0.00    -0.290 N 
ATOM      9  O   UNL     1      -0.466  49.419  -0.250  0.00  0.00    -0.268 OA
BRANCH   2   3
ATOM      3  C   UNL     1      -0.007  49.847  -2.775  0.00  0.00    +0.077 C 
ATOM      4  C   UNL     1      -0.446  50.452  -4.064  0.00  0.00    +0.024 C 
ATOM      5  C   UNL     1      -0.825  51.093  -2.771  0.00  0.00    +0.024 C 
ENDBRANCH   2   3
BRANCH   2   6
ATOM      6  C   UNL     1      -0.818  47.536  -3.385  0.00  0.00    +0.077 C 
ATOM      7  C   UNL     1      -1.965  46.591  -3.364  0.00  0.00    +0.024 C 
ATOM      8  C   UNL     1      -0.587  46.099  -3.082  0.00  0.00    +0.024 C 
ENDBRANCH   2   6
ENDBRANCH  10   1
BRANCH  16  18
ATOM     18  C   UNL     1      -3.271  44.135   4.641  0.00  0.00    +0.105 C 
BRANCH  18  19
ATOM     19  C   UNL     1      -3.581  43.182   5.780  0.00  0.00    +0.047 C 
BRANCH  19  20
ATOM     20  C   UNL     1      -3.054  43.666   7.106  0.00  0.00    +0.161 C 
BRANCH  20  21
ATOM     21  O   UNL     1      -3.850  44.777   7.506  0.00  0.00    -0.383 OA
ATOM     22  C   UNL     1      -3.427  45.346   8.740  0.00  0.00    +0.193 C 
ENDBRANCH  20  21
ENDBRANCH  19  20
ENDBRANCH  18  19
ENDBRANCH  16  18
TORSDOF 7
