REMARK  Name = 3feg_ligand
REMARK  14 active torsions:
REMARK  status: ('A' for Active; 'I' for Inactive)
REMARK    1  A    between atoms: NBG_2  and  CAC_3
REMARK    2  A    between atoms: NBG_2  and  CAD_4
REMARK    3  A    between atoms: CBE_8  and  OAG_9
REMARK    4  A    between atoms: CBE_8  and  CBD_10
REMARK    5  A    between atoms: CBC_15  and  CBB_16
REMARK    6  A    between atoms: CBA_21  and  CAZ_22
REMARK    7  A    between atoms: CAZ_22  and  CAV_24
REMARK    8  A    between atoms: CAV_24  and  NBF_25
REMARK    9  A    between atoms: NBF_25  and  CAA_26
REMARK   10  A    between atoms: NBF_25  and  CAB_27
REMARK   11  A    between atoms: NBF_25  and  CAU_28
REMARK   12  A    between atoms: CAU_28  and  CAS_29
REMARK   13  A    between atoms: CAS_29  and  OAY_30
REMARK   14  A    between atoms: OAY_30  and  PBH_31
REMARK                            x       y       z     vdW  Elec       q    Type
REMARK                         _______ _______ _______ _____ _____    ______ ____
ROOT
ATOM      7  C   UNL     1      22.612  59.300   2.494  0.00  0.00    +0.006 A 
ATOM      8  C   UNL     1      21.611  60.174   2.892  0.00  0.00    +0.028 A 
ATOM      9  C   UNL     1      20.641  59.782   3.806  0.00  0.00    +0.031 A 
ATOM     10  C   UNL     1      20.641  58.516   4.376  0.00  0.00    +0.043 A 
ATOM     24  C   UNL     1      21.638  57.635   4.003  0.00  0.00    +0.031 A 
ATOM     25  C   UNL     1      22.605  58.025   3.056  0.00  0.00    +0.028 A 
ENDROOT
BRANCH   7   6
ATOM      3  C   UNL     1      25.433  60.590  -0.385  0.00  0.00    +0.004 A 
ATOM      4  C   UNL     1      24.939  61.479   0.558  0.00  0.00    +0.048 A 
ATOM      5  C   UNL     1      24.011  61.045   1.507  0.00  0.00    +0.045 A 
ATOM      6  C   UNL     1      23.571  59.722   1.537  0.00  0.00    +0.012 A 
ATOM     26  C   UNL     1      24.063  58.837   0.576  0.00  0.00    +0.045 A 
ATOM     27  C   UNL     1      24.995  59.271  -0.385  0.00  0.00    +0.048 A 
BRANCH   3   2
ATOM      1  C   UNL     1      25.766  61.114  -2.783  0.00  0.00    +0.149 C 
ATOM      2  C   UNL     1      26.451  61.084  -1.417  0.00  0.00    +0.195 C 
ATOM     30  O   UNL     1      26.903  62.408  -1.086  0.00  0.00    -0.382 OA
ATOM     31  C   UNL     1      27.898  62.797  -2.039  0.00  0.00    +0.199 C 
ATOM     32  C   UNL     1      27.284  62.877  -3.440  0.00  0.00    +0.159 C 
ATOM     33  N   UNL     1      26.697  61.585  -3.819  0.00  0.00    +0.238 N 
ATOM     34  C   UNL     1      25.936  61.760  -5.063  0.00  0.00    +0.191 C 
ATOM     35  C   UNL     1      27.775  60.593  -4.007  0.00  0.00    +0.191 C 
BRANCH   2  28
ATOM     28  O   UNL     1      27.565  60.194  -1.440  0.00  0.00    -0.403 OA
ATOM     29  H   UNL     1      28.197  60.491  -2.099  0.00  0.00    +0.197 HD
ENDBRANCH   2  28
ENDBRANCH   3   2
ENDBRANCH   7   6
BRANCH  10  11
ATOM     11  C   UNL     1      19.569  58.123   5.396  0.00  0.00    +0.181 C 
ATOM     23  O   UNL     1      18.624  58.888   5.616  0.00  0.00    -0.371 OA
BRANCH  11  12
ATOM     12  C   UNL     1      19.705  56.804   6.167  0.00  0.00    +0.255 C 
BRANCH  12  13
ATOM     13  N   UNL     1      18.907  56.761   7.426  0.00  0.00    +0.256 N 
ATOM     21  C   UNL     1      17.455  56.779   7.145  0.00  0.00    +0.194 C 
ATOM     22  C   UNL     1      19.235  55.480   8.067  0.00  0.00    +0.194 C 
BRANCH  13  14
ATOM     14  C   UNL     1      19.210  57.882   8.341  0.00  0.00    +0.168 C 
BRANCH  14  15
ATOM     15  C   UNL     1      20.563  57.809   9.043  0.00  0.00    +0.251 C 
BRANCH  15  16
ATOM     16  O   UNL     1      21.579  57.808   8.116  0.00  0.00    -0.271 OA
BRANCH  16  17
ATOM     17  P   UNL     1      23.040  57.314   8.523  0.00  0.00    +0.201 P 
ATOM     18  O   UNL     1      23.046  55.845   8.849  0.00  0.00    -0.554 OA
ATOM     19  O   UNL     1      23.822  57.584   7.222  0.00  0.00    -0.554 OA
ATOM     20  O   UNL     1      23.539  58.255   9.670  0.00  0.00    -0.554 OA
ENDBRANCH  16  17
ENDBRANCH  15  16
ENDBRANCH  14  15
ENDBRANCH  13  14
ENDBRANCH  12  13
ENDBRANCH  11  12
ENDBRANCH  10  11
TORSDOF 10
