REMARK  Name = 4gb9_ligand
REMARK  10 active torsions:
REMARK  status: ('A' for Active; 'I' for Inactive)
REMARK    1  A    between atoms: C1_1  and  C2_4
REMARK    2  A    between atoms: N1_2  and  C9_17
REMARK    3  A    between atoms: C2_4  and  O2_6
REMARK    4  A    between atoms: C2_4  and  C3_7
REMARK    5  A    between atoms: C2_4  and  C4_9
REMARK    6  A    between atoms: N3_8  and  C13_21
REMARK    7  A    between atoms: N6_14  and  C15_23
REMARK    8  A    between atoms: C9_17  and  C10_18
REMARK    9  A    between atoms: N9_37  and  C27_38
REMARK   10  A    between atoms: N9_37  and  C28_39
REMARK                            x       y       z     vdW  Elec       q    Type
REMARK                         _______ _______ _______ _____ _____    ______ ____
ROOT
ATOM      9  C   UNL     1      15.767  -2.102  19.435  0.00  0.00    +0.170 A 
ATOM     10  N   UNL     1      17.070  -2.003  19.131  0.00  0.00    -0.220 N 
ATOM     11  C   UNL     1      17.824  -0.855  18.735  0.00  0.00    +0.220 C 
ATOM     12  C   UNL     1      17.666  -3.294  19.259  0.00  0.00    +0.144 A 
ATOM     13  C   UNL     1      16.672  -4.182  19.644  0.00  0.00    +0.083 A 
ATOM     14  C   UNL     1      17.055  -5.563  19.837  0.00  0.00    +0.123 A 
ATOM     21  N   UNL     1      18.346  -5.943  19.619  0.00  0.00    -0.246 NA
ATOM     22  C   UNL     1      19.279  -5.024  19.246  0.00  0.00    +0.212 A 
ATOM     23  N   UNL     1      20.597  -5.458  19.004  0.00  0.00    -0.145 N 
ATOM     24  C   UNL     1      21.483  -4.953  18.086  0.00  0.00    +0.240 A 
ATOM     25  N   UNL     1      21.240  -3.888  17.242  0.00  0.00    -0.264 N 
ATOM     26  C   UNL     1      22.457  -3.457  16.542  0.00  0.00    +0.173 C 
ATOM     27  C   UNL     1      20.150  -4.176  16.297  0.00  0.00    +0.173 C 
ATOM     28  N   UNL     1      22.601  -5.629  18.139  0.00  0.00    -0.307 NA
ATOM     29  C   UNL     1      22.507  -6.604  19.079  0.00  0.00    +0.017 A 
ATOM     30  C   UNL     1      23.391  -7.590  19.523  0.00  0.00    -0.016 A 
ATOM     31  C   UNL     1      22.992  -8.455  20.516  0.00  0.00    -0.028 A 
ATOM     32  C   UNL     1      21.726  -8.361  21.072  0.00  0.00    -0.026 A 
ATOM     33  C   UNL     1      20.840  -7.396  20.642  0.00  0.00    +0.014 A 
ATOM     34  C   UNL     1      21.225  -6.516  19.644  0.00  0.00    +0.100 A 
ATOM     35  N   UNL     1      18.975  -3.733  19.056  0.00  0.00    -0.252 NA
ATOM     36  N   UNL     1      15.475  -3.440  19.757  0.00  0.00    -0.309 NA
ENDROOT
BRANCH  14  15
ATOM     15  N   UNL     1      16.148  -6.597  20.244  0.00  0.00    -0.286 N 
ATOM     16  C   UNL     1      16.728  -7.855  20.518  0.00  0.00    +0.165 C 
ATOM     17  C   UNL     1      16.482  -8.278  21.923  0.00  0.00    +0.184 C 
ATOM     18  O   UNL     1      15.103  -8.229  22.200  0.00  0.00    -0.376 OA
ATOM     19  C   UNL     1      14.595  -6.932  22.060  0.00  0.00    +0.184 C 
ATOM     20  C   UNL     1      14.820  -6.415  20.678  0.00  0.00    +0.165 C 
ENDBRANCH  14  15
BRANCH   9   8
ATOM      8  C   UNL     1      14.754  -0.940  19.439  0.00  0.00    +0.266 C 
BRANCH   8   6
ATOM      3  C   UNL     1      10.707  -1.658  18.106  0.00  0.00    +0.030 C 
ATOM      4  C   UNL     1      11.726  -2.438  17.472  0.00  0.00    +0.057 C 
ATOM      5  C   UNL     1      13.068  -1.780  17.542  0.00  0.00    +0.134 C 
ATOM      6  N   UNL     1      13.426  -1.425  18.906  0.00  0.00    +0.254 N 
ATOM      7  H   UNL     1      13.368  -2.333  19.340  0.00  0.00    +0.205 HD
ATOM     37  C   UNL     1      12.395  -0.649  19.570  0.00  0.00    +0.134 C 
ATOM     38  C   UNL     1      11.057  -1.292  19.500  0.00  0.00    +0.057 C 
BRANCH   3   2
ATOM      1  C   UNL     1       9.055  -2.952  16.655  0.00  0.00    +0.041 C 
ATOM      2  C   UNL     1       9.310  -2.392  18.051  0.00  0.00    +0.064 C 
ATOM     39  C   UNL     1       8.231  -1.355  18.393  0.00  0.00    +0.041 C 
BRANCH   2  40
ATOM     40  O   UNL     1       9.242  -3.429  18.954  0.00  0.00    -0.389 OA
ATOM     41  H   UNL     1       9.399  -3.096  19.830  0.00  0.00    +0.210 HD
ENDBRANCH   2  40
ENDBRANCH   3   2
ENDBRANCH   8   6
ENDBRANCH   9   8
TORSDOF 5
