REMARK  Name = 5H09
REMARK  15 active torsions:
REMARK  status: ('A' for Active; 'I' for Inactive)
REMARK    1  A    between atoms: O_1  and  C_25
REMARK    2  A    between atoms: O_1  and  C_38
REMARK    3  A    between atoms: C_3  and  N_10
REMARK    4  A    between atoms: N_7  and  C_12
REMARK    5  A    between atoms: C_9  and  C_11
REMARK    6  A    between atoms: C_15  and  N_24
REMARK    7  A    between atoms: C_20  and  O_23
REMARK    8  A    between atoms: O_23  and  C_31
REMARK    9  A    between atoms: N_24  and  C_26
REMARK   10  A    between atoms: C_25  and  C_26
REMARK   11  A    between atoms: C_26  and  C_27
REMARK   12  A    between atoms: C_27  and  C_28
REMARK   13  A    between atoms: C_28  and  C_29
REMARK   14  A    between atoms: C_28  and  C_30
REMARK   15  A    between atoms: C_38  and  C_39
REMARK                            x       y       z     vdW  Elec       q    Type
REMARK                         _______ _______ _______ _____ _____    ______ ____
ROOT
ATOM     18  N   UNL     1       4.720  -1.880  -0.545  0.00  0.00    -0.328 N 
ATOM     19  C   UNL     1       5.186  -2.911  -1.086  0.00  0.00    +0.147 A 
ATOM     20  N   UNL     1       6.406  -3.421  -0.999  0.00  0.00    -0.218 NA
ATOM     21  C   UNL     1       6.514  -4.544  -1.730  0.00  0.00    +0.225 A 
ATOM     22  N   UNL     1       5.570  -5.148  -2.482  0.00  0.00    -0.220 NA
ATOM     23  C   UNL     1       4.368  -4.591  -2.530  0.00  0.00    +0.129 A 
ATOM     27  C   UNL     1       4.110  -3.447  -1.834  0.00  0.00    +0.066 A 
ATOM     28  C   UNL     1       3.012  -2.477  -1.585  0.00  0.00    +0.012 A 
ATOM     42  C   UNL     1       3.558  -1.531  -0.730  0.00  0.00    +0.097 A 
ENDROOT
BRANCH  18  16
ATOM     13  C   UNL     1       6.379   1.064   2.303  0.00  0.00    +0.055 C 
ATOM     14  C   UNL     1       6.524  -0.441   2.566  0.00  0.00    +0.020 C 
ATOM     15  C   UNL     1       5.489  -1.291   1.808  0.00  0.00    +0.027 C 
ATOM     16  C   UNL     1       5.596  -1.051   0.303  0.00  0.00    +0.089 C 
ATOM     17  C   UNL     1       5.305   0.432   0.059  0.00  0.00    +0.027 C 
ATOM     43  C   UNL     1       6.301   1.330   0.796  0.00  0.00    +0.020 C 
BRANCH  13  11
ATOM     11  N   UNL     1       7.522   1.814   2.817  0.00  0.00    -0.301 NA
ATOM     12  H   UNL     1       7.452   2.822   2.466  0.00  0.00    +0.123 HD
BRANCH  11   6
ATOM      6  C   UNL     1       7.592   1.835   4.273  0.00  0.00    +0.164 C 
BRANCH   6   4
ATOM      4  C   UNL     1       6.394   2.559   4.889  0.00  0.00    +0.324 C 
ATOM      5  O   UNL     1       5.922   2.161   5.901  0.00  0.00    -0.249 OA
BRANCH   4   1
ATOM      1  O   UNL     1       5.853   3.697   4.285  0.00  0.00    -0.464 OA
BRANCH   1   2
ATOM      2  C   UNL     1       4.519   3.942   4.635  0.00  0.00    +0.229 C 
ATOM      3  C   UNL     1       4.343   5.413   5.014  0.00  0.00    +0.048 C 
ENDBRANCH   1   2
ENDBRANCH   4   1
ENDBRANCH   6   4
BRANCH   6   7
ATOM      7  C   UNL     1       8.853   2.577   4.720  0.00  0.00    +0.033 C 
BRANCH   7   8
ATOM      8  C   UNL     1      10.095   1.737   4.436  0.00  0.00    -0.015 C 
ATOM      9  C   UNL     1      10.195   0.608   5.461  0.00  0.00    +0.007 C 
ATOM     10  C   UNL     1      11.340   2.620   4.509  0.00  0.00    +0.007 C 
ENDBRANCH   7   8
ENDBRANCH   6   7
ENDBRANCH  11   6
ENDBRANCH  13  11
ENDBRANCH  18  16
BRANCH  28  29
ATOM     29  C   UNL     1       1.565  -2.502  -2.083  0.00  0.00    -0.016 A 
ATOM     30  C   UNL     1       0.824  -3.665  -1.935  0.00  0.00    +0.012 A 
ATOM     31  C   UNL     1      -0.499  -3.718  -2.352  0.00  0.00    +0.047 A 
ATOM     32  C   UNL     1      -1.107  -2.616  -2.927  0.00  0.00    +0.129 A 
ATOM     40  C   UNL     1      -0.385  -1.440  -3.047  0.00  0.00    +0.047 A 
ATOM     41  C   UNL     1       0.942  -1.382  -2.626  0.00  0.00    +0.012 A 
BRANCH  32  33
ATOM     33  O   UNL     1      -2.465  -2.742  -3.283  0.00  0.00    -0.456 OA
BRANCH  33  34
ATOM     34  C   UNL     1      -2.947  -2.232  -4.490  0.00  0.00    +0.128 A 
ATOM     35  C   UNL     1      -2.256  -2.370  -5.684  0.00  0.00    +0.046 A 
ATOM     36  C   UNL     1      -2.805  -1.863  -6.852  0.00  0.00    +0.004 A 
ATOM     37  C   UNL     1      -4.043  -1.237  -6.835  0.00  0.00    +0.000 A 
ATOM     38  C   UNL     1      -4.739  -1.120  -5.647  0.00  0.00    +0.004 A 
ATOM     39  C   UNL     1      -4.193  -1.617  -4.475  0.00  0.00    +0.046 A 
ENDBRANCH  33  34
ENDBRANCH  32  33
ENDBRANCH  28  29
BRANCH  23  24
ATOM     24  N   UNL     1       3.338  -5.210  -3.337  0.00  0.00    -0.343 N 
ATOM     25  H   UNL     1       3.551  -6.108  -3.879  0.00  0.00    +0.144 HD
ATOM     26  H   UNL     1       2.364  -4.770  -3.391  0.00  0.00    +0.144 HD
ENDBRANCH  23  24
TORSDOF 12
