REMARK  Name = 5OPV
REMARK  5 active torsions:
REMARK  status: ('A' for Active; 'I' for Inactive)
REMARK    1  A    between atoms: C_5  and  C_15
REMARK    2  A    between atoms: N_8  and  C_21
REMARK    3  A    between atoms: C_9  and  C_14
REMARK    4  A    between atoms: N_10  and  C_24
REMARK    5  A    between atoms: C_19  and  C_25
REMARK                            x       y       z     vdW  Elec       q    Type
REMARK                         _______ _______ _______ _____ _____    ______ ____
ROOT
ATOM      1  N   UNL     1     -18.516  -2.320  19.682  0.00  0.00    -0.324 N 
ATOM      2  H   UNL     1     -18.691  -1.447  20.275  0.00  0.00    +0.169 HD
ATOM      3  C   UNL     1     -17.308  -2.498  19.159  0.00  0.00    +0.141 C 
ATOM      4  C   UNL     1     -17.085  -3.646  18.396  0.00  0.00    +0.044 C 
ATOM      5  C   UNL     1     -15.743  -3.562  18.045  0.00  0.00    +0.081 C 
ATOM      8  C   UNL     1     -15.223  -2.384  18.556  0.00  0.00    +0.132 C 
ATOM      9  C   UNL     1     -18.126  -4.576  18.220  0.00  0.00    -0.003 C 
ATOM     17  C   UNL     1     -19.406  -4.363  18.720  0.00  0.00    +0.055 C 
ATOM     18  N   UNL     1     -16.219  -1.730  19.207  0.00  0.00    -0.236 NA
ATOM     19  C   UNL     1     -19.541  -3.194  19.500  0.00  0.00    +0.135 C 
ATOM     20  N   UNL     1     -20.673  -2.757  20.107  0.00  0.00    -0.209 NA
ENDROOT
BRANCH   9  10
ATOM     10  C   UNL     1     -18.029  -5.802  17.392  0.00  0.00    -0.017 A 
ATOM     11  C   UNL     1     -17.555  -5.649  16.092  0.00  0.00    +0.012 A 
ATOM     12  C   UNL     1     -17.509  -6.698  15.170  0.00  0.00    -0.050 A 
ATOM     13  C   UNL     1     -16.911  -6.424  13.759  0.00  0.00    +0.044 C 
ATOM     14  C   UNL     1     -17.935  -7.937  15.567  0.00  0.00    +0.003 A 
ATOM     15  C   UNL     1     -18.443  -8.104  16.847  0.00  0.00    +0.001 A 
ATOM     16  C   UNL     1     -18.527  -7.052  17.759  0.00  0.00    +0.008 A 
ENDBRANCH   9  10
BRANCH  20  21
ATOM     21  C   UNL     1     -21.838  -3.474  20.215  0.00  0.00    +0.176 A 
ATOM     22  C   UNL     1     -22.917  -3.019  20.952  0.00  0.00    +0.069 A 
ATOM     23  C   UNL     1     -23.890  -3.994  20.862  0.00  0.00    +0.110 A 
ATOM     24  N   UNL     1     -23.369  -4.968  20.076  0.00  0.00    -0.273 N 
ATOM     25  C   UNL     1     -24.096  -6.177  19.701  0.00  0.00    +0.172 C 
ATOM     26  N   UNL     1     -22.125  -4.659  19.699  0.00  0.00    -0.152 NA
ENDBRANCH  20  21
BRANCH   5   6
ATOM      6  C   UNL     1     -15.003  -4.510  17.260  0.00  0.00    +0.101 C 
ATOM      7  N   UNL     1     -14.411  -5.264  16.623  0.00  0.00    -0.191 NA
ENDBRANCH   5   6
TORSDOF 3
