REMARK  Name = 5HBJ
REMARK  3 active torsions:
REMARK  status: ('A' for Active; 'I' for Inactive)
REMARK    1  A    between atoms: C_1  and  N_15
REMARK    2  A    between atoms: C_5  and  C_7
REMARK    3  A    between atoms: C_11  and  N_22
REMARK                            x       y       z     vdW  Elec       q    Type
REMARK                         _______ _______ _______ _____ _____    ______ ____
ROOT
ATOM      7  C   UNL     1      -6.227  10.727 -10.451  0.00  0.00    +0.023 A 
ATOM      8  C   UNL     1      -6.220  11.137 -11.809  0.00  0.00    +0.061 A 
ATOM     21  C   UNL     1      -7.000  10.401 -12.714  0.00  0.00    +0.102 A 
ATOM     22 CL   UNL     1      -7.077  10.807 -14.398  0.00  0.00    -0.078 Cl
ATOM     23  C   UNL     1      -7.741   9.315 -12.256  0.00  0.00    +0.137 A 
ATOM     24  N   UNL     1      -8.516   8.585 -13.148  0.00  0.00    -0.342 N 
ATOM     25  H   UNL     1      -8.539   8.856 -14.183  0.00  0.00    +0.144 HD
ATOM     26  H   UNL     1      -9.091   7.752 -12.800  0.00  0.00    +0.144 HD
ATOM     27  N   UNL     1      -7.724   8.966 -10.974  0.00  0.00    -0.238 NA
ATOM     28  C   UNL     1      -7.005   9.630 -10.087  0.00  0.00    +0.123 A 
ENDROOT
BRANCH   8   9
ATOM      9  N   UNL     1      -5.459  12.230 -12.219  0.00  0.00    -0.328 N 
ATOM     10  C   UNL     1      -5.785  13.582 -11.733  0.00  0.00    +0.106 C 
ATOM     11  C   UNL     1      -5.752  14.592 -12.892  0.00  0.00    +0.035 C 
ATOM     12  C   UNL     1      -4.444  14.509 -13.677  0.00  0.00    +0.051 C 
ATOM     13  C   UNL     1      -4.486  15.496 -14.817  0.00  0.00    +0.219 C 
ATOM     14  O   UNL     1      -5.442  15.694 -15.540  0.00  0.00    -0.275 OA
ATOM     15  N   UNL     1      -3.302  16.133 -14.917  0.00  0.00    -0.315 N 
ATOM     16  H   UNL     1      -3.080  16.884 -15.646  0.00  0.00    +0.149 HD
ATOM     17  C   UNL     1      -2.359  15.664 -13.898  0.00  0.00    +0.105 C 
ATOM     18  C   UNL     1      -3.238  14.978 -12.830  0.00  0.00    +0.035 C 
ATOM     19  C   UNL     1      -4.237  13.097 -14.217  0.00  0.00    +0.035 C 
ATOM     20  C   UNL     1      -4.293  12.037 -13.101  0.00  0.00    +0.106 C 
ENDBRANCH   8   9
BRANCH   7   6
ATOM      1  C   UNL     1      -3.328  13.966  -5.292  0.00  0.00    +0.173 C 
ATOM      2  N   UNL     1      -3.067  13.249  -6.542  0.00  0.00    -0.267 N 
ATOM      3  C   UNL     1      -4.018  12.700  -7.359  0.00  0.00    +0.069 A 
ATOM      4  C   UNL     1      -5.419  12.629  -7.314  0.00  0.00    +0.028 A 
ATOM      5  C   UNL     1      -6.119  11.999  -8.308  0.00  0.00    +0.010 A 
ATOM      6  C   UNL     1      -5.446  11.411  -9.390  0.00  0.00    -0.014 A 
ATOM     29  C   UNL     1      -4.056  11.461  -9.457  0.00  0.00    +0.020 A 
ATOM     30  C   UNL     1      -3.331  12.111  -8.443  0.00  0.00    +0.020 A 
ATOM     31  C   UNL     1      -1.913  12.352  -8.205  0.00  0.00    +0.143 A 
ATOM     32  N   UNL     1      -1.806  13.018  -7.093  0.00  0.00    -0.179 NA
ENDBRANCH   7   6
TORSDOF 2
