REMARK  Name = 5oti
REMARK  7 active torsions:
REMARK  status: ('A' for Active; 'I' for Inactive)
REMARK    1  A    between atoms: C8_3  and  C7_4
REMARK    2  A    between atoms: C2_9  and  C1_10
REMARK    3  A    between atoms: C11_13  and  C12_16
REMARK    4  A    between atoms: C12_16  and  N_17
REMARK    5  A    between atoms: N_17  and  C13_18
REMARK    6  A    between atoms: C13_18  and  C14_19
REMARK    7  A    between atoms: C14_19  and  C15_20
REMARK                            x       y       z     vdW  Elec       q    Type
REMARK                         _______ _______ _______ _____ _____    ______ ____
ROOT
ATOM      1 CL   UNL     1    -106.396-173.335 310.762  0.00  0.00    -0.084 Cl
ATOM      2  C   UNL     1    -107.543-174.617 310.978  0.00  0.00    +0.049 A 
ATOM      3  C   UNL     1    -108.881-174.329 310.803  0.00  0.00    +0.026 A 
ATOM      4  C   UNL     1    -109.842-175.314 310.983  0.00  0.00    -0.033 A 
ATOM     19  C   UNL     1    -109.423-176.587 311.330  0.00  0.00    +0.006 A 
ATOM     20  C   UNL     1    -108.082-176.877 311.502  0.00  0.00    +0.010 A 
ATOM     21  C   UNL     1    -107.111-175.891 311.332  0.00  0.00    +0.001 A 
ENDROOT
BRANCH  21  22
ATOM     22  C   UNL     1    -105.675-176.242 311.545  0.00  0.00    -0.014 A 
ATOM     23  C   UNL     1    -104.803-176.524 310.483  0.00  0.00    -0.040 A 
ATOM     26  C   UNL     1    -103.480-176.855 310.758  0.00  0.00    +0.004 A 
ATOM     27  C   UNL     1    -103.020-176.903 312.060  0.00  0.00    +0.000 A 
ATOM     28  C   UNL     1    -103.871-176.624 313.102  0.00  0.00    +0.001 A 
ATOM     29  C   UNL     1    -105.192-176.296 312.853  0.00  0.00    +0.009 A 
BRANCH  23  24
ATOM     24  C   UNL     1    -105.296-176.463 309.056  0.00  0.00    +0.033 C 
ATOM     25  C   UNL     1    -104.589-175.440 308.204  0.00  0.00    +0.009 C 
ENDBRANCH  23  24
ENDBRANCH  21  22
BRANCH   4   5
ATOM      5  C   UNL     1    -111.308-174.996 310.824  0.00  0.00    +0.116 C 
BRANCH   5   6
ATOM      6  N   UNL     1    -111.989-175.878 309.877  0.00  0.00    -0.190 NA
BRANCH   6   7
ATOM      7  C   UNL     1    -113.396-175.523 309.687  0.00  0.00    +0.089 C 
BRANCH   7   8
ATOM      8  C   UNL     1    -114.003-176.599 308.817  0.00  0.00    +0.090 C 
BRANCH   8   9
ATOM      9  C   UNL     1    -115.485-176.643 308.949  0.00  0.00    +0.108 A 
ATOM     10  N   UNL     1    -116.240-177.576 308.326  0.00  0.00    -0.174 NA
ATOM     11  C   UNL     1    -117.559-177.319 308.657  0.00  0.00    +0.066 A 
ATOM     12  C   UNL     1    -118.759-177.925 308.315  0.00  0.00    +0.031 A 
ATOM     13  C   UNL     1    -119.954-177.416 308.807  0.00  0.00    -0.049 A 
ATOM     14  C   UNL     1    -121.269-178.061 308.447  0.00  0.00    +0.044 C 
ATOM     15  C   UNL     1    -119.912-176.301 309.641  0.00  0.00    +0.006 A 
ATOM     16  C   UNL     1    -118.715-175.693 309.988  0.00  0.00    +0.031 A 
ATOM     17  C   UNL     1    -117.521-176.207 309.491  0.00  0.00    +0.089 A 
ATOM     18  N   UNL     1    -116.200-175.797 309.665  0.00  0.00    -0.233 NA
ENDBRANCH   8   9
ENDBRANCH   7   8
ENDBRANCH   6   7
ENDBRANCH   5   6
ENDBRANCH   4   5
TORSDOF 7
