REMARK  Name = 4aac_ligand
REMARK  5 active torsions:
REMARK  status: ('A' for Active; 'I' for Inactive)
REMARK    1  A    between atoms: C1_1  and  N2_2
REMARK    2  A    between atoms: N5_5  and  C8_8
REMARK    3  A    between atoms: N14_14  and  C15_15
REMARK    4  A    between atoms: C17_17  and  C19_19
REMARK    5  A    between atoms: C28_27  and  C29_28
REMARK                            x       y       z     vdW  Elec       q    Type
REMARK                         _______ _______ _______ _____ _____    ______ ____
ROOT
ATOM      7  C   UNL     1      -2.805   1.225  24.312  0.00  0.00    +0.041 A 
ATOM      8  C   UNL     1      -2.928   1.828  23.055  0.00  0.00    +0.025 A 
ATOM      9  C   UNL     1      -3.043   1.006  21.940  0.00  0.00    +0.059 A 
ATOM     10  C   UNL     1      -3.203   1.565  20.584  0.00  0.00    +0.257 A 
ATOM     11  O   UNL     1      -3.206   2.773  20.391  0.00  0.00    -0.376 OA
ATOM     12  N   UNL     1      -3.399   0.683  19.560  0.00  0.00    -0.142 N 
ATOM     29  C   UNL     1      -3.393  -0.673  19.769  0.00  0.00    +0.292 A 
ATOM     30  N   UNL     1      -3.207  -1.190  20.955  0.00  0.00    -0.300 NA
ATOM     31  C   UNL     1      -3.064  -0.416  22.071  0.00  0.00    +0.015 A 
ATOM     32  C   UNL     1      -2.961  -1.010  23.336  0.00  0.00    -0.003 A 
ATOM     33  C   UNL     1      -2.824  -0.185  24.425  0.00  0.00    +0.011 A 
ENDROOT
BRANCH   7   6
ATOM      1  C   UNL     1      -1.355   4.341  28.711  0.00  0.00    +0.190 C 
ATOM      2  N   UNL     1      -1.339   3.625  27.434  0.00  0.00    +0.236 N 
ATOM      3  H   UNL     1      -0.443   3.750  26.989  0.00  0.00    +0.203 HD
ATOM      4  C   UNL     1      -2.394   4.170  26.542  0.00  0.00    +0.155 C 
ATOM      5  C   UNL     1      -2.369   3.419  25.193  0.00  0.00    +0.179 C 
ATOM      6  N   UNL     1      -2.690   2.001  25.485  0.00  0.00    -0.301 N 
ATOM     34  C   UNL     1      -1.682   1.390  26.392  0.00  0.00    +0.179 C 
ATOM     35  C   UNL     1      -1.547   2.163  27.719  0.00  0.00    +0.155 C 
ENDBRANCH   7   6
BRANCH  12  13
ATOM     13  C   UNL     1      -3.603   1.190  18.276  0.00  0.00    +0.118 A 
ATOM     14  C   UNL     1      -4.934   1.323  17.857  0.00  0.00    -0.007 A 
ATOM     15  C   UNL     1      -6.127   0.928  18.710  0.00  0.00    +0.085 C 
ATOM     16  C   UNL     1      -5.186   1.853  16.617  0.00  0.00    -0.008 A 
ATOM     17  C   UNL     1      -4.128   2.200  15.803  0.00  0.00    -0.003 A 
ATOM     18  C   UNL     1      -2.786   2.100  16.195  0.00  0.00    +0.040 A 
ATOM     28  C   UNL     1      -2.529   1.586  17.471  0.00  0.00    +0.042 A 
BRANCH  18  19
ATOM     19  C   UNL     1      -1.760   2.528  15.191  0.00  0.00    +0.221 C 
ATOM     20  O   UNL     1      -0.574   2.213  15.187  0.00  0.00    -0.378 OA
ATOM     21  N   UNL     1      -2.181   3.272  14.169  0.00  0.00    -0.233 N 
ATOM     22  H   UNL     1      -3.140   3.548  14.112  0.00  0.00    +0.220 HD
ATOM     23  C   UNL     1      -1.271   3.668  13.170  0.00  0.00    +0.127 A 
ATOM     24  N   UNL     1      -0.222   2.980  12.737  0.00  0.00    -0.152 NA
ATOM     25  O   UNL     1       0.353   3.568  11.835  0.00  0.00    -0.193 OA
ATOM     26  C   UNL     1      -0.253   4.739  11.559  0.00  0.00    +0.221 A 
ATOM     27  C   UNL     1      -1.322   4.851  12.390  0.00  0.00    +0.028 A 
ENDBRANCH  18  19
ENDBRANCH  12  13
TORSDOF 3
