REMARK  Name = 5ouu
REMARK  6 active torsions:
REMARK  status: ('A' for Active; 'I' for Inactive)
REMARK    1  A    between atoms: C5_2  and  C4_3
REMARK    2  A    between atoms: C5_2  and  C6_6
REMARK    3  A    between atoms: C4_3  and  N_20
REMARK    4  A    between atoms: C2_4  and  C3_19
REMARK    5  A    between atoms: C15_9  and  C16_10
REMARK    6  A    between atoms: C3_19  and  N_20
REMARK                            x       y       z     vdW  Elec       q    Type
REMARK                         _______ _______ _______ _____ _____    ______ ____
ROOT
ATOM     12  C   UNL     1       4.897 136.201 351.669  0.00  0.00    +0.116 C 
ENDROOT
BRANCH  12  13
ATOM     13  C   UNL     1       4.858 137.635 351.200  0.00  0.00    -0.033 A 
ATOM     14  C   UNL     1       3.884 138.061 350.301  0.00  0.00    +0.026 A 
ATOM     15  C   UNL     1       3.810 139.390 349.928  0.00  0.00    +0.049 A 
ATOM     16  C   UNL     1       4.706 140.348 350.435  0.00  0.00    +0.000 A 
ATOM     17  C   UNL     1       5.691 139.903 351.320  0.00  0.00    +0.010 A 
ATOM     24 CL   UNL     1       2.568 139.852 348.808  0.00  0.00    -0.084 Cl
ATOM     25  C   UNL     1       5.760 138.571 351.691  0.00  0.00    +0.006 A 
BRANCH  16  18
ATOM     18  C   UNL     1       4.654 141.805 350.122  0.00  0.00    -0.017 A 
ATOM     19  C   UNL     1       3.617 142.605 350.603  0.00  0.00    +0.009 A 
ATOM     20  C   UNL     1       3.636 143.979 350.417  0.00  0.00    +0.001 A 
ATOM     21  C   UNL     1       4.689 144.579 349.755  0.00  0.00    +0.000 A 
ATOM     22  C   UNL     1       5.720 143.801 349.264  0.00  0.00    +0.001 A 
ATOM     23  C   UNL     1       5.697 142.424 349.431  0.00  0.00    +0.009 A 
ENDBRANCH  16  18
ENDBRANCH  12  13
BRANCH  12  11
ATOM     11  N   UNL     1       6.214 135.567 351.519  0.00  0.00    -0.190 NA
BRANCH  11  10
ATOM     10  C   UNL     1       6.319 134.284 352.223  0.00  0.00    +0.089 C 
BRANCH  10   9
ATOM      9  C   UNL     1       6.921 134.342 353.614  0.00  0.00    +0.090 C 
BRANCH   9   7
ATOM      1  C   UNL     1       7.375 129.650 355.094  0.00  0.00    +0.030 A 
ATOM      2  C   UNL     1       8.400 128.957 355.727  0.00  0.00    +0.002 A 
ATOM      3  C   UNL     1       9.618 129.576 356.010  0.00  0.00    +0.002 A 
ATOM      4  C   UNL     1       9.840 130.903 355.665  0.00  0.00    +0.028 A 
ATOM      5  C   UNL     1       8.808 131.590 355.035  0.00  0.00    +0.066 A 
ATOM      6  N   UNL     1       8.686 132.893 354.595  0.00  0.00    -0.174 NA
ATOM      7  C   UNL     1       7.442 133.029 354.084  0.00  0.00    +0.108 A 
ATOM      8  N   UNL     1       6.740 131.912 354.139  0.00  0.00    -0.233 NA
ATOM     26  C   UNL     1       7.586 130.984 354.747  0.00  0.00    +0.089 A 
ENDBRANCH   9   7
ENDBRANCH  10   9
ENDBRANCH  11  10
ENDBRANCH  12  11
TORSDOF 6
