REMARK  Name = 6BKU
REMARK  4 active torsions:
REMARK  status: ('A' for Active; 'I' for Inactive)
REMARK    1  A    between atoms: C_4  and  C_17
REMARK    2  A    between atoms: C_5  and  C_8
REMARK    3  A    between atoms: C_7  and  C_11
REMARK    4  A    between atoms: C_22  and  C_24
REMARK                            x       y       z     vdW  Elec       q    Type
REMARK                         _______ _______ _______ _____ _____    ______ ____
ROOT
ATOM     13  C   UNL     1     -25.018 -14.256 -13.397  0.00  0.00    +0.011 A 
ATOM     14  C   UNL     1     -25.781 -13.969 -14.496  0.00  0.00    +0.122 A 
ATOM     15  N   UNL     1     -26.121 -15.121 -15.174  0.00  0.00    -0.235 NA
ATOM     16  C   UNL     1     -25.578 -16.178 -14.522  0.00  0.00    +0.160 A 
ATOM     17  N   UNL     1     -25.683 -17.459 -14.894  0.00  0.00    -0.235 NA
ATOM     18  C   UNL     1     -25.051 -18.333 -14.120  0.00  0.00    +0.121 A 
ATOM     19  C   UNL     1     -24.327 -17.988 -12.956  0.00  0.00    +0.001 A 
ATOM     26  C   UNL     1     -24.240 -16.641 -12.596  0.00  0.00    +0.022 A 
ATOM     27  C   UNL     1     -24.872 -15.694 -13.391  0.00  0.00    +0.029 A 
ENDROOT
BRANCH  13  12
ATOM      5  C   UNL     1     -22.738 -12.589 -10.862  0.00  0.00    -0.034 A 
ATOM      6  C   UNL     1     -23.411 -11.361 -10.673  0.00  0.00    +0.001 A 
ATOM     10  C   UNL     1     -24.604 -11.129 -11.368  0.00  0.00    +0.010 A 
ATOM     11  C   UNL     1     -25.098 -12.062 -12.255  0.00  0.00    +0.009 A 
ATOM     12  C   UNL     1     -24.458 -13.282 -12.437  0.00  0.00    -0.016 A 
ATOM     28  C   UNL     1     -23.264 -13.524 -11.755  0.00  0.00    +0.013 A 
BRANCH   5   3
ATOM      1  C   UNL     1     -21.106 -15.186  -9.421  0.00  0.00    -0.030 C 
ATOM      2  C   UNL     1     -21.522 -13.809  -8.936  0.00  0.00    +0.035 C 
ATOM      3  C   UNL     1     -21.435 -12.891 -10.151  0.00  0.00    +0.027 C 
ATOM      4  C   UNL     1     -20.334 -13.515 -11.005  0.00  0.00    +0.035 C 
ATOM     29  C   UNL     1     -20.168 -14.962 -10.545  0.00  0.00    -0.030 C 
ENDBRANCH   5   3
BRANCH   6   7
ATOM      7  C   UNL     1     -22.957 -10.273  -9.729  0.00  0.00    +0.072 C 
ATOM      8  O   UNL     1     -22.560 -10.603  -8.600  0.00  0.00    -0.545 OA
ATOM      9  O   UNL     1     -23.070  -9.087 -10.115  0.00  0.00    -0.545 OA
ENDBRANCH   6   7
ENDBRANCH  13  12
BRANCH  19  20
ATOM     20  C   UNL     1     -23.630 -19.035 -12.152  0.00  0.00    -0.016 A 
ATOM     21  C   UNL     1     -23.971 -20.383 -12.253  0.00  0.00    +0.008 A 
ATOM     22  C   UNL     1     -23.292 -21.355 -11.529  0.00  0.00    +0.001 A 
ATOM     23  C   UNL     1     -22.247 -21.006 -10.706  0.00  0.00    +0.000 A 
ATOM     24  C   UNL     1     -21.882 -19.683 -10.598  0.00  0.00    +0.001 A 
ATOM     25  C   UNL     1     -22.555 -18.712 -11.323  0.00  0.00    +0.008 A 
ENDBRANCH  19  20
TORSDOF 4
