REMARK  Name = 2c6m_ligand
REMARK  6 active torsions:
REMARK  status: ('A' for Active; 'I' for Inactive)
REMARK    1  A    between atoms: N6_1  and  S1_2
REMARK    2  A    between atoms: S1_2  and  C16_5
REMARK    3  A    between atoms: C13_10  and  N5_11
REMARK    4  A    between atoms: N5_11  and  C9_12
REMARK    5  A    between atoms: C7_20  and  O1_21
REMARK    6  A    between atoms: O1_21  and  C1_22
REMARK                            x       y       z     vdW  Elec       q    Type
REMARK                         _______ _______ _______ _____ _____    ______ ____
ROOT
ATOM     11  C   UNL     1      11.760 -10.245  11.810  0.00  0.00    +0.244 A 
ATOM     12  C   UNL     1      12.389  -9.516  10.748  0.00  0.00    +0.100 A 
ATOM     13  C   UNL     1      13.549  -8.762  11.064  0.00  0.00    +0.151 A 
ATOM     21  N   UNL     1      14.034  -8.799  12.331  0.00  0.00    -0.260 NA
ATOM     22  C   UNL     1      13.441  -9.551  13.263  0.00  0.00    +0.208 A 
ATOM     23  N   UNL     1      13.752  -9.674  14.551  0.00  0.00    -0.306 NA
ATOM     24  C   UNL     1      12.813 -10.492  15.105  0.00  0.00    +0.125 A 
ATOM     25  N   UNL     1      11.955 -10.854  14.115  0.00  0.00    -0.185 NA
ATOM     26  N   UNL     1      12.341 -10.242  13.015  0.00  0.00    -0.087 N 
ENDROOT
BRANCH  11   9
ATOM      9  N   UNL     1      10.610 -11.031  11.625  0.00  0.00    -0.223 N 
ATOM     10  H   UNL     1      10.406 -11.749  12.334  0.00  0.00    +0.226 HD
BRANCH   9   8
ATOM      5  C   UNL     1       7.793 -10.720   8.589  0.00  0.00    +0.097 A 
ATOM      6  C   UNL     1       8.457  -9.571   9.041  0.00  0.00    +0.017 A 
ATOM      7  C   UNL     1       9.419  -9.666  10.039  0.00  0.00    +0.019 A 
ATOM      8  C   UNL     1       9.742 -10.915  10.576  0.00  0.00    +0.072 A 
ATOM     27  C   UNL     1       9.040 -12.058  10.143  0.00  0.00    +0.019 A 
ATOM     28  C   UNL     1       8.091 -11.957   9.130  0.00  0.00    +0.017 A 
BRANCH   5   4
ATOM      4  S   UNL     1       6.611 -10.582   7.335  0.00  0.00    +0.061 S 
ATOM     29  O   UNL     1       5.482  -9.794   7.817  0.00  0.00    -0.152 OA
ATOM     30  O   UNL     1       7.232  -9.908   6.189  0.00  0.00    -0.152 OA
BRANCH   4   1
ATOM      1  N   UNL     1       6.114 -12.021   6.900  0.00  0.00    -0.262 NA
ATOM      2  H   UNL     1       5.147 -12.262   6.981  0.00  0.00    +0.163 HD
ATOM      3  H   UNL     1       6.767 -12.689   6.544  0.00  0.00    +0.163 HD
ENDBRANCH   4   1
ENDBRANCH   5   4
ENDBRANCH   9   8
ENDBRANCH  11   9
BRANCH  13  14
ATOM     14  O   UNL     1      14.254  -8.035  10.123  0.00  0.00    -0.291 OA
BRANCH  14  15
ATOM     15  C   UNL     1      13.609  -7.877   8.924  0.00  0.00    +0.155 C 
ATOM     16  C   UNL     1      13.901  -6.447   8.437  0.00  0.00    +0.038 C 
ATOM     17  C   UNL     1      13.332  -6.218   7.033  0.00  0.00    +0.003 C 
ATOM     18  C   UNL     1      13.955  -7.218   6.058  0.00  0.00    +0.000 C 
ATOM     19  C   UNL     1      13.627  -8.640   6.520  0.00  0.00    +0.003 C 
ATOM     20  C   UNL     1      14.205  -8.876   7.924  0.00  0.00    +0.038 C 
ENDBRANCH  14  15
ENDBRANCH  13  14
TORSDOF 6
