REMARK  Name = 4WSY
REMARK  2 active torsions:
REMARK  status: ('A' for Active; 'I' for Inactive)
REMARK    1  A    between atoms: C_10  and  C_11
REMARK    2  A    between atoms: C_19  and  C_20
REMARK                            x       y       z     vdW  Elec       q    Type
REMARK                         _______ _______ _______ _____ _____    ______ ____
ROOT
ATOM      3  C   UNL     1      21.507 -39.327  -0.525  0.00  0.00    +0.102 A 
ATOM      4  N   UNL     1      22.015 -40.034   0.489  0.00  0.00    -0.173 NA
ATOM      5  N   UNL     1      21.570 -39.616   1.569  0.00  0.00    -0.276 N 
ATOM      6  H   UNL     1      21.828 -40.019   2.526  0.00  0.00    +0.189 HD
ATOM      7  C   UNL     1      20.736 -38.609   1.384  0.00  0.00    +0.066 A 
ATOM      8  C   UNL     1      20.005 -37.840   2.258  0.00  0.00    +0.028 A 
ATOM      9  C   UNL     1      19.185 -36.843   1.762  0.00  0.00    +0.011 A 
ATOM     10  C   UNL     1      19.127 -36.619   0.390  0.00  0.00    -0.009 A 
ATOM     19  C   UNL     1      19.845 -37.403  -0.490  0.00  0.00    +0.021 A 
ATOM     20  C   UNL     1      20.653 -38.396   0.028  0.00  0.00    +0.028 A 
ENDROOT
BRANCH   3   2
ATOM      1  C   UNL     1      22.882 -40.057  -2.395  0.00  0.00    +0.021 A 
ATOM      2  C   UNL     1      21.704 -39.503  -1.901  0.00  0.00    +0.021 A 
ATOM     21  C   UNL     1      20.689 -39.192  -2.808  0.00  0.00    +0.121 A 
ATOM     22  N   UNL     1      20.840 -39.381  -4.113  0.00  0.00    -0.254 NA
ATOM     23  C   UNL     1      21.968 -39.900  -4.614  0.00  0.00    +0.071 A 
ATOM     24  C   UNL     1      22.082 -40.078  -5.984  0.00  0.00    +0.028 A 
ATOM     25  C   UNL     1      23.259 -40.616  -6.507  0.00  0.00    +0.002 A 
ATOM     26  C   UNL     1      24.310 -40.966  -5.665  0.00  0.00    +0.001 A 
ATOM     27  C   UNL     1      24.190 -40.777  -4.287  0.00  0.00    +0.010 A 
ATOM     28  C   UNL     1      23.015 -40.242  -3.766  0.00  0.00    +0.001 A 
ENDBRANCH   3   2
BRANCH  10  11
ATOM     11  C   UNL     1      18.278 -35.655  -0.102  0.00  0.00    +0.041 A 
ATOM     12  C   UNL     1      17.523 -34.755   0.544  0.00  0.00    +0.129 A 
ATOM     13  N   UNL     1      16.767 -33.994  -0.264  0.00  0.00    -0.233 NA
ATOM     14  C   UNL     1      16.912 -34.317  -1.545  0.00  0.00    +0.156 A 
ATOM     15  N   UNL     1      16.286 -33.785  -2.559  0.00  0.00    -0.338 N 
ATOM     16  H   UNL     1      15.597 -32.982  -2.401  0.00  0.00    +0.144 HD
ATOM     17  H   UNL     1      16.462 -34.152  -3.549  0.00  0.00    +0.144 HD
ATOM     18  S   UNL     1      17.969 -35.539  -1.735  0.00  0.00    -0.053 S 
ENDBRANCH  10  11
TORSDOF 2
