REMARK  Name = 6J9
REMARK  0 active torsions:
REMARK  status: ('A' for Active; 'I' for Inactive)
REMARK                            x       y       z     vdW  Elec       q    Type
REMARK                         _______ _______ _______ _____ _____    ______ ____
ROOT
ATOM      1  C   UNL     1      11.064 -31.947  81.923  0.00  0.00    +0.133 A 
ATOM      2  C   UNL     1      11.568 -31.401  83.223  0.00  0.00    +0.051 A 
ATOM      3  C   UNL     1      10.581 -30.689  84.053  0.00  0.00    +0.163 A 
ATOM      4  N   UNL     1      11.267 -30.306  85.146  0.00  0.00    -0.230 NA
ATOM      5  C   UNL     1      12.571 -30.712  85.068  0.00  0.00    +0.079 C 
ATOM      6  N   UNL     1       9.297 -30.555  83.622  0.00  0.00    -0.205 NA
ATOM      7  C   UNL     1       8.909 -31.069  82.435  0.00  0.00    +0.201 A 
ATOM      8  C   UNL     1      12.828 -31.402  83.890  0.00  0.00    +0.079 C 
ATOM      9  N   UNL     1       9.752 -31.739  81.618  0.00  0.00    -0.209 NA
ATOM     10  N   UNL     1      11.899 -32.653  81.031  0.00  0.00    -0.290 N 
ATOM     11  C   UNL     1      12.574 -33.882  81.469  0.00  0.00    +0.111 C 
ATOM     12  C   UNL     1      12.228 -34.971  80.449  0.00  0.00    +0.110 C 
ATOM     13  N   UNL     1      12.561 -34.504  79.084  0.00  0.00    -0.214 NA
ATOM     14  C   UNL     1      11.772 -33.309  78.712  0.00  0.00    +0.110 C 
ATOM     15  C   UNL     1      12.083 -32.149  79.664  0.00  0.00    +0.111 C 
ENDROOT
TORSDOF 0
