REMARK  Name = J2M
REMARK  3 active torsions:
REMARK  status: ('A' for Active; 'I' for Inactive)
REMARK    1  A    between atoms: C16_3  and  C8_18
REMARK    2  A    between atoms: C2_12  and  N17_22
REMARK    3  A    between atoms: C4_14  and  C7_17
REMARK                            x       y       z     vdW  Elec       q    Type
REMARK                         _______ _______ _______ _____ _____    ______ ____
ROOT
ATOM      1  N   UNL     1       4.607   8.745   9.786  0.00  0.00    -0.201 NA
ATOM      2  C   UNL     1       3.764   7.568   9.921  0.00  0.00    +0.122 C 
ATOM      3  C   UNL     1       2.740   7.436   8.808  0.00  0.00    +0.069 C 
ATOM      4  C   UNL     1       3.367   7.894   7.529  0.00  0.00    +0.065 A 
ATOM      5  C   UNL     1       4.445   8.738   7.432  0.00  0.00    +0.070 A 
ATOM      6  C   UNL     1       4.691   8.920   6.013  0.00  0.00    +0.025 A 
ATOM     14  C   UNL     1       3.788   8.127   5.343  0.00  0.00    +0.081 A 
ATOM     25  N   UNL     1       2.979   7.535   6.277  0.00  0.00    -0.250 NA
ATOM     26  C   UNL     1       5.024   9.278   8.633  0.00  0.00    +0.266 C 
ATOM     27  O   UNL     1       5.858  10.170   8.670  0.00  0.00    -0.268 OA
ENDROOT
BRANCH   6   7
ATOM      7  C   UNL     1       5.744   9.783   5.440  0.00  0.00    +0.021 A 
ATOM      8  C   UNL     1       7.026   9.799   5.976  0.00  0.00    +0.101 A 
ATOM      9  N   UNL     1       8.011  10.579   5.513  0.00  0.00    -0.217 NA
ATOM     10  C   UNL     1       7.713  11.347   4.489  0.00  0.00    +0.222 A 
ATOM     11  F   UNL     1       8.720  12.155   4.084  0.00  0.00    -0.183 F 
ATOM     12  C   UNL     1       6.497  11.424   3.852  0.00  0.00    +0.050 A 
ATOM     13  C   UNL     1       5.490  10.619   4.357  0.00  0.00    +0.005 A 
ENDBRANCH   6   7
BRANCH  14  15
ATOM     15  C   UNL     1       3.610   7.781   3.917  0.00  0.00    +0.022 A 
ATOM     16  C   UNL     1       2.355   7.389   3.461  0.00  0.00    +0.038 A 
ATOM     17  C   UNL     1       2.250   6.805   2.187  0.00  0.00    +0.155 A 
ATOM     22  N   UNL     1       3.318   6.668   1.362  0.00  0.00    -0.227 NA
ATOM     23  C   UNL     1       4.506   7.112   1.811  0.00  0.00    +0.100 A 
ATOM     24  C   UNL     1       4.702   7.664   3.062  0.00  0.00    +0.022 A 
BRANCH  17  18
ATOM     18  N   UNL     1       1.045   6.315   1.647  0.00  0.00    -0.160 NA
ATOM     19  C   UNL     1      -0.186   6.254   2.232  0.00  0.00    +0.247 C 
ATOM     20  O   UNL     1      -0.421   6.704   3.347  0.00  0.00    -0.273 OA
ATOM     21  C   UNL     1      -1.258   5.599   1.406  0.00  0.00    +0.097 C 
ENDBRANCH  17  18
ENDBRANCH  14  15
TORSDOF 3
