REMARK  Name = 4MTA
REMARK  4 active torsions:
REMARK  status: ('A' for Active; 'I' for Inactive)
REMARK    1  A    between atoms: C_1  and  C_2
REMARK    2  A    between atoms: C_7  and  C_11
REMARK    3  A    between atoms: C_8  and  C_12
REMARK    4  A    between atoms: C_11  and  O_14
REMARK                            x       y       z     vdW  Elec       q    Type
REMARK                         _______ _______ _______ _____ _____    ______ ____
ROOT
ATOM      1  C   UNL     1      73.766  34.310  -0.931  0.00  0.00    +0.136 A 
ATOM      2  O   UNL     1      74.192  33.651   0.151  0.00  0.00    -0.459 OA
ATOM      3  C   UNL     1      74.439  32.440  -0.351  0.00  0.00    +0.117 A 
ATOM      4  C   UNL     1      74.922  31.409   0.631  0.00  0.00    +0.087 C 
ATOM      5  C   UNL     1      74.172  32.282  -1.644  0.00  0.00    +0.100 A 
ATOM     10  C   UNL     1      73.666  33.587  -2.046  0.00  0.00    +0.065 A 
ENDROOT
BRANCH   1  11
ATOM     11  C   UNL     1      73.342  35.751  -0.812  0.00  0.00    +0.017 A 
ATOM     12  C   UNL     1      72.916  36.506  -1.923  0.00  0.00    +0.011 A 
ATOM     13  C   UNL     1      72.459  37.827  -1.747  0.00  0.00    +0.001 A 
ATOM     14  C   UNL     1      72.408  38.384  -0.459  0.00  0.00    +0.000 A 
ATOM     15  C   UNL     1      72.799  37.621   0.657  0.00  0.00    +0.001 A 
ATOM     16  C   UNL     1      73.270  36.313   0.478  0.00  0.00    +0.011 A 
ENDBRANCH   1  11
BRANCH   5   6
ATOM      6  C   UNL     1      74.246  31.107  -2.512  0.00  0.00    +0.340 C 
ATOM      7  O   UNL     1      74.830  30.127  -2.104  0.00  0.00    -0.245 OA
BRANCH   6   8
ATOM      8  O   UNL     1      73.637  31.121  -3.703  0.00  0.00    -0.477 OA
ATOM      9  H   UNL     1      72.607  31.274  -3.568  0.00  0.00    +0.295 HD
ENDBRANCH   6   8
ENDBRANCH   5   6
TORSDOF 3
