REMARK  Name = 2qd9_ligand
REMARK  7 active torsions:
REMARK  status: ('A' for Active; 'I' for Inactive)
REMARK    1  A    between atoms: C18_2  and  C16_3
REMARK    2  A    between atoms: C21_6  and  O34_30
REMARK    3  A    between atoms: C24_9  and  C27_12
REMARK    4  A    between atoms: C27_12  and  C29_33
REMARK    5  A    between atoms: C10_16  and  C9_17
REMARK    6  A    between atoms: O34_30  and  C35_31
REMARK    7  A    between atoms: C37_37  and  O40_38
REMARK                            x       y       z     vdW  Elec       q    Type
REMARK                         _______ _______ _______ _____ _____    ______ ____
ROOT
ATOM     13  C   UNL     1      -1.139  -1.672  24.854  0.00  0.00    +0.094 A 
ATOM     14  C   UNL     1       0.186  -0.919  24.969  0.00  0.00    +0.170 A 
ATOM     17  N   UNL     1       0.578  -0.466  26.062  0.00  0.00    -0.256 NA
ATOM     18  C   UNL     1      -0.231  -0.632  27.124  0.00  0.00    +0.132 A 
ATOM     19  N   UNL     1       0.015  -0.209  28.388  0.00  0.00    -0.258 N 
ATOM     20  H   UNL     1       0.854   0.314  28.678  0.00  0.00    +0.235 HD
ATOM     21  C   UNL     1      -1.025  -0.580  29.242  0.00  0.00    +0.158 A 
ATOM     22  C   UNL     1      -1.924  -1.256  28.506  0.00  0.00    +0.051 A 
ATOM     34  C   UNL     1      -1.370  -1.265  27.132  0.00  0.00    +0.015 A 
ATOM     35  C   UNL     1      -1.951  -1.819  25.919  0.00  0.00    +0.034 A 
ENDROOT
BRANCH  13  11
ATOM      5  C   UNL     1      -3.222   1.584  19.761  0.00  0.00    +0.129 A 
ATOM      6  N   UNL     1      -2.891   0.515  20.616  0.00  0.00    -0.240 N 
ATOM      7  C   UNL     1      -3.227  -0.914  20.433  0.00  0.00    +0.204 C 
ATOM      8  C   UNL     1      -2.092  -1.736  21.089  0.00  0.00    +0.173 C 
ATOM      9  N   UNL     1      -1.908  -1.175  22.459  0.00  0.00    -0.258 N 
ATOM     10  C   UNL     1      -1.644   0.226  22.697  0.00  0.00    +0.232 C 
ATOM     11  C   UNL     1      -1.631  -2.206  23.488  0.00  0.00    +0.205 C 
ATOM     12  O   UNL     1      -1.752  -3.357  23.167  0.00  0.00    -0.391 OA
ATOM     36  C   UNL     1      -2.200   1.035  21.611  0.00  0.00    +0.079 A 
ATOM     37  C   UNL     1      -2.061   2.353  21.457  0.00  0.00    +0.013 A 
ATOM     38  N   UNL     1      -2.701   2.670  20.216  0.00  0.00    -0.340 NA
BRANCH   5   4
ATOM      1  C   UNL     1      -5.197   0.811  16.066  0.00  0.00    +0.131 A 
ATOM      2  C   UNL     1      -3.900   1.395  16.067  0.00  0.00    +0.026 A 
ATOM      3  C   UNL     1      -3.199   1.707  17.191  0.00  0.00    +0.007 A 
ATOM      4  C   UNL     1      -3.876   1.360  18.425  0.00  0.00    +0.051 A 
ATOM     39  C   UNL     1      -5.153   0.871  18.368  0.00  0.00    +0.144 A 
ATOM     40  F   UNL     1      -5.791   0.511  19.524  0.00  0.00    -0.182 F 
ATOM     41  F   UNL     1      -5.736   0.379  14.951  0.00  0.00    -0.184 F 
ATOM     42  C   UNL     1      -5.863   0.536  17.174  0.00  0.00    +0.066 A 
ENDBRANCH   5   4
ENDBRANCH  13  11
BRANCH  14  15
ATOM     15  O   UNL     1       0.907  -0.775  23.833  0.00  0.00    -0.303 OA
ATOM     16  C   UNL     1       2.180  -0.050  23.914  0.00  0.00    +0.239 C 
ENDBRANCH  14  15
BRANCH  22  23
ATOM     23  C   UNL     1      -3.187  -1.873  29.011  0.00  0.00    +0.214 C 
ATOM     33  O   UNL     1      -3.858  -2.641  28.301  0.00  0.00    -0.359 OA
BRANCH  23  24
ATOM     24  C   UNL     1      -3.634  -1.602  30.445  0.00  0.00    +0.264 C 
ATOM     25  N   UNL     1      -4.214  -2.575  31.258  0.00  0.00    -0.261 N 
ATOM     26  C   UNL     1      -5.465  -2.335  31.984  0.00  0.00    +0.142 C 
ATOM     27  C   UNL     1      -5.897  -3.763  32.401  0.00  0.00    +0.058 C 
ATOM     28  C   UNL     1      -5.040  -4.598  31.463  0.00  0.00    +0.139 C 
ATOM     31  C   UNL     1      -3.684  -3.892  31.486  0.00  0.00    +0.170 C 
ATOM     32  O   UNL     1      -3.446  -0.491  30.957  0.00  0.00    -0.361 OA
BRANCH  28  29
ATOM     29  O   UNL     1      -5.564  -4.696  30.140  0.00  0.00    -0.390 OA
ATOM     30  H   UNL     1      -6.404  -5.139  30.165  0.00  0.00    +0.210 HD
ENDBRANCH  28  29
ENDBRANCH  23  24
ENDBRANCH  22  23
TORSDOF 6
