REMARK  Name = 3ocg_ligand
REMARK  6 active torsions:
REMARK  status: ('A' for Active; 'I' for Inactive)
REMARK    1  A    between atoms: N1_1  and  C25_25
REMARK    2  A    between atoms: C4_4  and  C7_7
REMARK    3  A    between atoms: C5_5  and  N6_6
REMARK    4  A    between atoms: N9_9  and  C10_10
REMARK    5  A    between atoms: C11_11  and  C24_24
REMARK    6  A    between atoms: C14_14  and  C16_16
REMARK                            x       y       z     vdW  Elec       q    Type
REMARK                         _______ _______ _______ _____ _____    ______ ____
ROOT
ATOM     13  C   UNL     1      36.540  -2.538  21.369  0.00  0.00    +0.197 C 
ATOM     14  N   UNL     1      37.197  -2.753  22.570  0.00  0.00    -0.243 N 
ATOM     15  H   UNL     1      37.569  -3.668  22.725  0.00  0.00    +0.221 HD
ATOM     32  O   UNL     1      36.270  -1.356  21.149  0.00  0.00    -0.400 OA
ENDROOT
BRANCH  14  16
ATOM     16  C   UNL     1      37.389  -1.811  23.585  0.00  0.00    +0.073 A 
ATOM     17  C   UNL     1      36.251  -1.316  24.275  0.00  0.00    +0.025 A 
ATOM     18  C   UNL     1      36.386  -0.361  25.310  0.00  0.00    +0.034 A 
ATOM     28  C   UNL     1      37.686   0.094  25.647  0.00  0.00    -0.011 A 
ATOM     29  C   UNL     1      38.839  -0.377  24.979  0.00  0.00    -0.015 A 
ATOM     30  C   UNL     1      38.680  -1.332  23.946  0.00  0.00    -0.019 A 
ATOM     31  C   UNL     1      39.920  -1.844  23.225  0.00  0.00    +0.079 C 
BRANCH  18  19
ATOM     19  C   UNL     1      35.368   0.149  26.004  0.00  0.00    +0.220 C 
ATOM     20  N   UNL     1      35.547   1.203  26.813  0.00  0.00    -0.234 N 
ATOM     21  H   UNL     1      36.392   1.727  26.705  0.00  0.00    +0.220 HD
ATOM     22  C   UNL     1      34.685   1.612  27.756  0.00  0.00    +0.127 A 
ATOM     23  C   UNL     1      34.503   2.934  28.183  0.00  0.00    +0.028 A 
ATOM     24  C   UNL     1      33.518   2.974  29.182  0.00  0.00    +0.221 A 
ATOM     25  O   UNL     1      33.070   1.830  29.421  0.00  0.00    -0.193 OA
ATOM     26  N   UNL     1      33.834   0.908  28.481  0.00  0.00    -0.152 NA
ATOM     27  O   UNL     1      34.266  -0.380  25.877  0.00  0.00    -0.378 OA
ENDBRANCH  18  19
ENDBRANCH  14  16
BRANCH  13  12
ATOM      1  N   UNL     1      35.448  -4.738  18.764  0.00  0.00    -0.137 N 
ATOM      8  C   UNL     1      35.553  -3.502  19.279  0.00  0.00    +0.196 A 
ATOM     12  C   UNL     1      36.225  -3.612  20.501  0.00  0.00    +0.087 A 
ATOM     33  C   UNL     1      36.537  -4.960  20.733  0.00  0.00    +0.062 A 
ATOM     34  N   UNL     1      36.121  -5.669  19.774  0.00  0.00    -0.222 NA
BRANCH   1   2
ATOM      2  C   UNL     1      34.851  -5.063  17.567  0.00  0.00    +0.112 A 
ATOM      3  C   UNL     1      35.594  -5.580  16.452  0.00  0.00    +0.031 A 
ATOM      4  C   UNL     1      34.926  -5.898  15.242  0.00  0.00    -0.007 A 
ATOM      5  C   UNL     1      33.528  -5.718  15.096  0.00  0.00    -0.014 A 
ATOM      6  C   UNL     1      32.786  -5.211  16.183  0.00  0.00    -0.007 A 
ATOM      7  C   UNL     1      33.427  -4.886  17.399  0.00  0.00    +0.031 A 
ENDBRANCH   1   2
BRANCH   8   9
ATOM      9  N   UNL     1      35.121  -2.339  18.779  0.00  0.00    -0.300 N 
ATOM     10  H   UNL     1      34.630  -2.318  17.874  0.00  0.00    +0.183 HD
ATOM     11  H   UNL     1      35.279  -1.464  19.299  0.00  0.00    +0.183 HD
ENDBRANCH   8   9
ENDBRANCH  13  12
TORSDOF 5
