REMARK  Name = 1QPJ
REMARK  5 active torsions:
REMARK  status: ('A' for Active; 'I' for Inactive)
REMARK    1  A    between atoms: C_4  and  N_34
REMARK    2  A    between atoms: C_5  and  O_32
REMARK    3  A    between atoms: C_6  and  C_7
REMARK    4  A    between atoms: O_32  and  C_33
REMARK    5  A    between atoms: N_34  and  C_35
REMARK                            x       y       z     vdW  Elec       q    Type
REMARK                         _______ _______ _______ _____ _____    ______ ____
ROOT
ATOM      1  O   UNL     1      23.376  15.962  13.262  0.00  0.00    -0.328 OA
ATOM      2  C   UNL     1      22.105  16.108  12.668  0.00  0.00    +0.174 C 
ATOM      3  N   UNL     1      21.105  15.915  13.744  0.00  0.00    -0.307 N 
ATOM      4  C   UNL     1      19.813  16.398  13.804  0.00  0.00    +0.053 A 
ATOM      5  C   UNL     1      19.077  17.182  12.931  0.00  0.00    +0.026 A 
ATOM      6  C   UNL     1      17.723  17.493  13.195  0.00  0.00    +0.002 A 
ATOM      7  C   UNL     1      17.118  16.998  14.371  0.00  0.00    +0.001 A 
ATOM      8  C   UNL     1      17.877  16.172  15.296  0.00  0.00    +0.010 A 
ATOM      9  C   UNL     1      19.251  15.861  15.008  0.00  0.00    +0.008 A 
ATOM     10  C   UNL     1      20.078  15.041  15.785  0.00  0.00    +0.015 A 
ATOM     11  C   UNL     1      20.098  14.278  16.921  0.00  0.00    -0.008 A 
ATOM     12  C   UNL     1      19.044  14.063  17.920  0.00  0.00    +0.141 C 
ATOM     13  N   UNL     1      19.619  13.009  18.773  0.00  0.00    -0.307 N 
ATOM     14  H   UNL     1      19.021  12.466  19.347  0.00  0.00    +0.149 HD
ATOM     15  C   UNL     1      20.878  12.779  18.502  0.00  0.00    +0.245 C 
ATOM     16  O   UNL     1      21.618  12.048  19.144  0.00  0.00    -0.270 OA
ATOM     17  C   UNL     1      21.201  13.512  17.306  0.00  0.00    +0.052 A 
ATOM     18  C   UNL     1      22.347  13.472  16.578  0.00  0.00    +0.022 A 
ATOM     19  C   UNL     1      23.639  12.861  16.543  0.00  0.00    +0.009 A 
ATOM     20  C   UNL     1      24.179  11.932  17.459  0.00  0.00    +0.010 A 
ATOM     21  C   UNL     1      25.447  11.442  17.298  0.00  0.00    +0.001 A 
ATOM     22  C   UNL     1      26.262  11.835  16.184  0.00  0.00    +0.002 A 
ATOM     23  C   UNL     1      25.673  12.757  15.296  0.00  0.00    +0.026 A 
ATOM     24  C   UNL     1      24.389  13.248  15.473  0.00  0.00    +0.052 A 
ATOM     25  N   UNL     1      23.614  14.128  14.731  0.00  0.00    -0.312 N 
ATOM     26  C   UNL     1      22.424  14.294  15.356  0.00  0.00    +0.077 A 
ATOM     27  C   UNL     1      21.273  15.092  14.939  0.00  0.00    +0.077 A 
ATOM     28  C   UNL     1      21.993  17.529  12.122  0.00  0.00    +0.069 C 
ATOM     29  C   UNL     1      21.947  15.107  11.537  0.00  0.00    +0.187 C 
ATOM     32  C   UNL     1      23.338  14.679  11.014  0.00  0.00    +0.091 C 
ATOM     36  C   UNL     1      24.119  13.901  12.172  0.00  0.00    +0.076 C 
ATOM     37  C   UNL     1      24.037  14.733  13.474  0.00  0.00    +0.224 C 
ENDROOT
BRANCH  32  33
ATOM     33  N   UNL     1      23.159  13.846   9.756  0.00  0.00    -0.314 NA
ATOM     34  H   UNL     1      22.585  13.040   9.967  0.00  0.00    +0.122 HD
ATOM     35  C   UNL     1      24.409  13.392   9.202  0.00  0.00    +0.101 C 
ENDBRANCH  32  33
BRANCH  29  30
ATOM     30  O   UNL     1      21.342  13.924  12.005  0.00  0.00    -0.374 OA
ATOM     31  C   UNL     1      19.985  13.789  11.735  0.00  0.00    +0.194 C 
ENDBRANCH  29  30
TORSDOF 2
