REMARK  Name = 3vbw_ligand
REMARK  1 active torsions:
REMARK  status: ('A' for Active; 'I' for Inactive)
REMARK    1  A    between atoms: CAA_11  and  CAF_12
REMARK                            x       y       z     vdW  Elec       q    Type
REMARK                         _______ _______ _______ _____ _____    ______ ____
ROOT
ATOM      1  O   UNL     1      23.171  33.573   3.393  0.00  0.00    -0.368 OA
ATOM      2  C   UNL     1      22.725  33.947   2.288  0.00  0.00    +0.184 C 
ATOM      3  C   UNL     1      21.846  33.234   1.462  0.00  0.00    +0.334 C 
ATOM      6  C   UNL     1      22.029  33.829   0.172  0.00  0.00    +0.184 C 
ATOM      7  O   UNL     1      21.614  33.357  -0.900  0.00  0.00    -0.368 OA
ATOM      8  C   UNL     1      22.493  35.086   0.381  0.00  0.00    +0.055 A 
ATOM      9  C   UNL     1      22.543  36.141  -0.434  0.00  0.00    +0.031 A 
ATOM     10  C   UNL     1      23.068  37.374   0.028  0.00  0.00    +0.015 A 
ATOM     11  C   UNL     1      23.493  37.462   1.367  0.00  0.00    +0.015 A 
ATOM     12  C   UNL     1      23.382  36.330   2.193  0.00  0.00    +0.031 A 
ATOM     13  C   UNL     1      22.904  35.172   1.691  0.00  0.00    +0.055 A 
ENDROOT
BRANCH   3   4
ATOM      4  C   UNL     1      21.741  31.736   1.512  0.00  0.00    +0.133 C 
ATOM      5  N   UNL     1      21.552  30.540   1.547  0.00  0.00    -0.298 NA
ENDBRANCH   3   4
TORSDOF 1
