REMARK  Name = 1uu8_ligand
REMARK  8 active torsions:
REMARK  status: ('A' for Active; 'I' for Inactive)
REMARK    1  A    between atoms: CBD_1  and  NBC_2
REMARK    2  A    between atoms: NBC_2  and  CBE_3
REMARK    3  A    between atoms: NBC_2  and  CBB_4
REMARK    4  A    between atoms: CBB_4  and  CBA_5
REMARK    5  A    between atoms: CBA_5  and  CAY_6
REMARK    6  A    between atoms: CAY_6  and  NAH_7
REMARK    7  A    between atoms: CAG_15  and  CAI_16
REMARK    8  A    between atoms: CAJ_22  and  CAK_23
REMARK                            x       y       z     vdW  Elec       q    Type
REMARK                         _______ _______ _______ _____ _____    ______ ____
ROOT
ATOM     12  C   UNL     1      27.307  78.540  27.612  0.00  0.00    +0.044 C 
ATOM     13  C   UNL     1      28.192  79.369  28.292  0.00  0.00    +0.044 C 
ATOM     24  C   UNL     1      29.433  78.740  28.314  0.00  0.00    +0.224 C 
ATOM     25  N   UNL     1      29.257  77.583  27.677  0.00  0.00    -0.204 N 
ATOM     26  H   UNL     1      29.989  76.914  27.545  0.00  0.00    +0.220 HD
ATOM     27  O   UNL     1      30.481  79.168  28.791  0.00  0.00    -0.372 OA
ATOM     28  C   UNL     1      28.014  77.401  27.233  0.00  0.00    +0.224 C 
ATOM     29  O   UNL     1      27.604  76.438  26.591  0.00  0.00    -0.372 OA
ENDROOT
BRANCH  13  14
ATOM     14  C   UNL     1      27.916  80.588  28.910  0.00  0.00    -0.005 A 
ATOM     15  C   UNL     1      28.843  81.543  28.925  0.00  0.00    +0.139 A 
ATOM     16  N   UNL     1      28.346  82.594  29.583  0.00  0.00    -0.274 N 
ATOM     17  H   UNL     1      28.855  83.475  29.740  0.00  0.00    +0.231 HD
ATOM     18  C   UNL     1      27.106  82.355  30.010  0.00  0.00    +0.069 A 
ATOM     19  C   UNL     1      26.175  83.110  30.719  0.00  0.00    +0.014 A 
ATOM     20  C   UNL     1      24.930  82.562  31.010  0.00  0.00    -0.021 A 
ATOM     21  C   UNL     1      24.627  81.267  30.596  0.00  0.00    -0.026 A 
ATOM     22  C   UNL     1      25.564  80.518  29.890  0.00  0.00    -0.017 A 
ATOM     23  C   UNL     1      26.809  81.066  29.592  0.00  0.00    -0.013 A 
ENDBRANCH  13  14
BRANCH  12  11
ATOM      8  N   UNL     1      24.345  79.975  26.479  0.00  0.00    -0.259 N 
ATOM      9  C   UNL     1      23.838  78.750  26.607  0.00  0.00    +0.071 A 
ATOM     10  C   UNL     1      24.886  77.979  27.095  0.00  0.00    -0.013 A 
ATOM     11  C   UNL     1      25.991  78.806  27.239  0.00  0.00    -0.005 A 
ATOM     30  C   UNL     1      24.695  76.618  27.306  0.00  0.00    -0.017 A 
ATOM     31  C   UNL     1      23.461  76.036  27.026  0.00  0.00    -0.026 A 
ATOM     32  C   UNL     1      22.415  76.816  26.539  0.00  0.00    -0.021 A 
ATOM     33  C   UNL     1      22.600  78.179  26.329  0.00  0.00    +0.014 A 
ATOM     34  C   UNL     1      25.627  80.029  26.854  0.00  0.00    +0.142 A 
BRANCH   8   7
ATOM      7  C   UNL     1      23.599  81.101  25.894  0.00  0.00    +0.180 C 
BRANCH   7   6
ATOM      6  C   UNL     1      24.033  82.473  26.421  0.00  0.00    +0.083 C 
BRANCH   6   5
ATOM      5  C   UNL     1      23.443  82.811  27.794  0.00  0.00    +0.133 C 
BRANCH   5   2
ATOM      1  C   UNL     1      21.211  82.732  28.917  0.00  0.00    +0.190 C 
ATOM      2  N   UNL     1      22.013  83.172  27.767  0.00  0.00    +0.231 N 
ATOM      3  H   UNL     1      22.100  84.149  28.000  0.00  0.00    +0.203 HD
ATOM      4  C   UNL     1      21.324  83.321  26.475  0.00  0.00    +0.190 C 
ENDBRANCH   5   2
ENDBRANCH   6   5
ENDBRANCH   7   6
ENDBRANCH   8   7
ENDBRANCH  12  11
TORSDOF 6
