REMARK  Name = 3mvj_ligand
REMARK  2 active torsions:
REMARK  status: ('A' for Active; 'I' for Inactive)
REMARK    1  A    between atoms: C1_1  and  N16_16
REMARK    2  A    between atoms: C14_14  and  C15_15
REMARK                            x       y       z     vdW  Elec       q    Type
REMARK                         _______ _______ _______ _____ _____    ______ ____
ROOT
ATOM      1  C   UNL     1      15.982  14.238  14.373  0.00  0.00    +0.086 C 
ATOM      6  C   UNL     1      16.963  15.325  13.921  0.00  0.00    +0.193 C 
ATOM      7  N   UNL     1      18.276  14.927  14.463  0.00  0.00    -0.282 N 
ATOM      8  C   UNL     1      19.308  15.882  14.710  0.00  0.00    +0.122 A 
ATOM      9  C   UNL     1      19.544  17.107  14.042  0.00  0.00    +0.049 A 
ATOM     10  C   UNL     1      18.936  17.885  12.964  0.00  0.00    -0.040 A 
ATOM     11  C   UNL     1      17.739  17.515  12.142  0.00  0.00    +0.049 C 
ATOM     12  C   UNL     1      19.632  19.033  12.763  0.00  0.00    +0.099 A 
ATOM     13  N   UNL     1      20.657  19.051  13.662  0.00  0.00    -0.276 N 
ATOM     14  H   UNL     1      21.348  19.810  13.745  0.00  0.00    +0.227 HD
ATOM     15  C   UNL     1      20.643  17.938  14.429  0.00  0.00    +0.132 A 
ATOM     16  N   UNL     1      21.486  17.568  15.441  0.00  0.00    -0.279 NA
ATOM     17  C   UNL     1      21.247  16.389  16.030  0.00  0.00    +0.147 A 
ATOM     18  N   UNL     1      20.199  15.592  15.689  0.00  0.00    -0.274 NA
ATOM     19  C   UNL     1      18.166  13.818  15.441  0.00  0.00    +0.145 C 
ATOM     20  C   UNL     1      16.672  13.541  15.542  0.00  0.00    +0.081 C 
ENDROOT
BRANCH   1   2
ATOM      2  N   UNL     1      14.700  14.825  14.782  0.00  0.00    +0.222 N 
ATOM      3  H   UNL     1      14.852  15.463  15.548  0.00  0.00    +0.200 HD
ATOM      4  H   UNL     1      14.295  15.323  14.005  0.00  0.00    +0.200 HD
ATOM      5  H   UNL     1      14.073  14.092  15.074  0.00  0.00    +0.200 HD
ENDBRANCH   1   2
TORSDOF 1
