REMARK  Name = 5EHO
REMARK  7 active torsions:
REMARK  status: ('A' for Active; 'I' for Inactive)
REMARK    1  A    between atoms: C_4  and  C_8
REMARK    2  A    between atoms: C_6  and  O_22
REMARK    3  A    between atoms: C_7  and  O_22
REMARK    4  A    between atoms: C_12  and  N_32
REMARK    5  A    between atoms: C_18  and  N_19
REMARK    6  A    between atoms: C_23  and  N_24
REMARK    7  A    between atoms: C_30  and  N_32
REMARK                            x       y       z     vdW  Elec       q    Type
REMARK                         _______ _______ _______ _____ _____    ______ ____
ROOT
ATOM      1  C   UNL     1       1.266 -32.573 -11.851  0.00  0.00    +0.023 A 
ATOM      2  C   UNL     1       1.172 -33.938 -11.624  0.00  0.00    +0.116 A 
ATOM      3  C   UNL     1       1.862 -34.819 -12.525  0.00  0.00    +0.145 A 
ATOM     12  N   UNL     1       2.578 -34.351 -13.565  0.00  0.00    -0.238 NA
ATOM     13  C   UNL     1       2.632 -33.001 -13.737  0.00  0.00    +0.113 A 
ATOM     14  N   UNL     1       0.469 -34.492 -10.600  0.00  0.00    -0.211 NA
ATOM     15  C   UNL     1      -0.145 -33.625  -9.797  0.00  0.00    +0.220 A 
ATOM     16  N   UNL     1      -0.127 -32.213  -9.921  0.00  0.00    -0.222 NA
ATOM     17  N   UNL     1      -0.889 -34.063  -8.721  0.00  0.00    -0.281 N 
ATOM     18  H   UNL     1      -1.304 -33.319  -8.074  0.00  0.00    +0.155 HD
ATOM     33  C   UNL     1       0.566 -31.739 -10.928  0.00  0.00    +0.124 A 
ATOM     34  C   UNL     1       2.012 -32.083 -12.932  0.00  0.00    +0.031 A 
ENDROOT
BRANCH  17  19
ATOM     19  C   UNL     1      -1.145 -35.402  -8.408  0.00  0.00    +0.076 A 
ATOM     20  C   UNL     1      -1.401 -36.384  -9.356  0.00  0.00    +0.027 A 
ATOM     21  C   UNL     1      -1.669 -37.682  -8.969  0.00  0.00    +0.010 A 
ATOM     22  C   UNL     1      -1.698 -38.048  -7.631  0.00  0.00    -0.011 A 
ATOM     29  C   UNL     1      -1.431 -37.085  -6.665  0.00  0.00    +0.056 A 
ATOM     30  C   UNL     1      -1.155 -35.783  -7.056  0.00  0.00    +0.142 A 
BRANCH  22  23
ATOM     23  C   UNL     1      -2.037 -39.392  -7.262  0.00  0.00    +0.020 A 
ATOM     24  C   UNL     1      -1.660 -40.569  -7.894  0.00  0.00    +0.116 A 
ATOM     25  N   UNL     1      -2.263 -41.594  -7.185  0.00  0.00    -0.274 N 
ATOM     26  N   UNL     1      -2.996 -41.136  -6.139  0.00  0.00    -0.179 NA
ATOM     27  C   UNL     1      -2.157 -43.024  -7.488  0.00  0.00    +0.172 C 
ATOM     28  C   UNL     1      -2.866 -39.793  -6.174  0.00  0.00    +0.143 A 
ENDBRANCH  22  23
BRANCH  30  31
ATOM     31  O   UNL     1      -0.855 -34.843  -6.105  0.00  0.00    -0.493 OA
ATOM     32  C   UNL     1      -1.812 -34.741  -5.083  0.00  0.00    +0.277 C 
ENDBRANCH  30  31
ENDBRANCH  17  19
BRANCH   3   4
ATOM      4  N   UNL     1       1.782 -36.165 -12.291  0.00  0.00    -0.325 N 
ATOM      5  H   UNL     1       1.316 -36.494 -11.386  0.00  0.00    +0.148 HD
BRANCH   4   6
ATOM      6  C   UNL     1       2.297 -37.177 -13.208  0.00  0.00    +0.072 C 
ATOM      7  C   UNL     1       1.222 -37.548 -14.244  0.00  0.00    +0.022 C 
ATOM      8  C   UNL     1      -0.023 -38.053 -13.525  0.00  0.00    +0.002 C 
ATOM      9  C   UNL     1       0.314 -39.265 -12.666  0.00  0.00    +0.000 C 
ATOM     10  C   UNL     1       1.391 -38.898 -11.657  0.00  0.00    +0.002 C 
ATOM     11  C   UNL     1       2.644 -38.424 -12.381  0.00  0.00    +0.022 C 
ENDBRANCH   4   6
ENDBRANCH   3   4
TORSDOF 5
