REMARK  Name = 3r8v_ligand
REMARK  8 active torsions:
REMARK  status: ('A' for Active; 'I' for Inactive)
REMARK    1  A    between atoms: C2_2  and  N3_3
REMARK    2  A    between atoms: C4_4  and  C5_5
REMARK    3  A    between atoms: C5_5  and  C6_6
REMARK    4  A    between atoms: C5_5  and  O12_12
REMARK    5  A    between atoms: C8_8  and  N19_19
REMARK    6  A    between atoms: N15_15  and  C16_16
REMARK    7  A    between atoms: C16_16  and  C17_17
REMARK    8  A    between atoms: C17_17  and  C18_18
REMARK                            x       y       z     vdW  Elec       q    Type
REMARK                         _______ _______ _______ _____ _____    ______ ____
ROOT
ATOM      1  N   UNL     1     -65.044 -81.956 -86.849  0.00  0.00    -0.107 NA
ATOM      2  C   UNL     1     -64.604 -82.044 -85.569  0.00  0.00    +0.320 A 
ATOM      3  N   UNL     1     -63.646 -82.966 -85.201  0.00  0.00    -0.226 N 
ATOM      4  H   UNL     1     -63.201 -83.548 -85.925  0.00  0.00    +0.233 HD
ATOM      8  S   UNL     1     -65.317 -80.925 -84.478  0.00  0.00    +0.244 S 
ATOM      9  C   UNL     1     -66.245 -80.290 -85.780  0.00  0.00    +0.335 A 
ATOM     22  C   UNL     1     -65.962 -80.985 -86.985  0.00  0.00    +0.347 A 
ENDROOT
BRANCH  22  23
ATOM     23  N   UNL     1     -66.528 -80.737 -88.199  0.00  0.00    -0.231 N 
ATOM     24  H   UNL     1     -66.253 -81.296 -89.019  0.00  0.00    +0.239 HD
ATOM     25  H   UNL     1     -67.231 -79.991 -88.296  0.00  0.00    +0.239 HD
ENDBRANCH  22  23
BRANCH   3   5
ATOM      5  C   UNL     1     -63.248 -83.134 -83.798  0.00  0.00    +0.175 C 
BRANCH   5   6
ATOM      6  C   UNL     1     -62.329 -82.026 -83.337  0.00  0.00    +0.028 C 
ATOM      7  C   UNL     1     -62.732 -81.092 -82.255  0.00  0.00    +0.006 C 
ENDBRANCH   5   6
ENDBRANCH   3   5
BRANCH   9  10
ATOM     10  C   UNL     1     -67.123 -79.238 -85.611  0.00  0.00    +0.405 C 
BRANCH  10  13
ATOM     13  C   UNL     1     -67.384 -78.542 -84.310  0.00  0.00    +0.056 A 
ATOM     14  C   UNL     1     -67.496 -77.116 -84.290  0.00  0.00    +0.030 A 
ATOM     15  C   UNL     1     -67.767 -76.438 -83.071  0.00  0.00    +0.010 A 
ATOM     16  C   UNL     1     -67.927 -77.166 -81.864  0.00  0.00    +0.040 A 
ATOM     17  C   UNL     1     -67.819 -78.609 -81.837  0.00  0.00    +0.085 A 
ATOM     21  C   UNL     1     -67.548 -79.273 -83.082  0.00  0.00    +0.061 A 
BRANCH  17  18
ATOM     18  N   UNL     1     -67.964 -79.309 -80.697  0.00  0.00    -0.216 N 
ATOM     19  O   UNL     1     -68.200 -78.766 -79.641  0.00  0.00    -0.488 OA
ATOM     20  O   UNL     1     -67.852 -80.640 -80.673  0.00  0.00    -0.488 OA
ENDBRANCH  17  18
ENDBRANCH  10  13
BRANCH  10  11
ATOM     11  O   UNL     1     -67.807 -78.749 -86.661  0.00  0.00    -0.322 OA
ATOM     12  H   UNL     1     -67.584 -79.244 -87.441  0.00  0.00    +0.227 HD
ENDBRANCH  10  11
ENDBRANCH   9  10
TORSDOF 7
