REMARK  Name = 4JT3
REMARK  6 active torsions:
REMARK  status: ('A' for Active; 'I' for Inactive)
REMARK    1  A    between atoms: C_1  and  C_21
REMARK    2  A    between atoms: C_7  and  N_22
REMARK    3  A    between atoms: C_8  and  C_10
REMARK    4  A    between atoms: C_10  and  C_11
REMARK    5  A    between atoms: N_13  and  S_14
REMARK    6  A    between atoms: S_14  and  C_17
REMARK                            x       y       z     vdW  Elec       q    Type
REMARK                         _______ _______ _______ _____ _____    ______ ____
ROOT
ATOM      1  C   UNL     1      34.760  22.045  47.170  0.00  0.00    +0.100 A 
ATOM      2  C   UNL     1      35.529  21.820  45.983  0.00  0.00    +0.029 A 
ATOM      3  C   UNL     1      36.027  20.652  45.335  0.00  0.00    +0.035 A 
ATOM      4  C   UNL     1      36.753  20.747  44.140  0.00  0.00    +0.034 A 
ATOM     16  C   UNL     1      36.990  22.019  43.576  0.00  0.00    +0.025 A 
ATOM     17  C   UNL     1      36.520  23.174  44.209  0.00  0.00    +0.029 A 
ATOM     18  C   UNL     1      35.773  23.059  45.420  0.00  0.00    +0.067 A 
ATOM     19  N   UNL     1      35.185  24.013  46.223  0.00  0.00    -0.276 N 
ATOM     20  H   UNL     1      35.185  25.068  46.044  0.00  0.00    +0.189 HD
ATOM     33  N   UNL     1      34.603  23.382  47.285  0.00  0.00    -0.173 NA
ENDROOT
BRANCH   1  21
ATOM     21  C   UNL     1      34.291  21.104  48.093  0.00  0.00    +0.004 A 
ATOM     22  C   UNL     1      34.181  21.467  49.442  0.00  0.00    +0.038 A 
ATOM     23  C   UNL     1      33.707  20.554  50.384  0.00  0.00    +0.106 A 
ATOM     24  C   UNL     1      33.350  19.262  49.992  0.00  0.00    +0.028 A 
ATOM     25  C   UNL     1      33.450  18.889  48.651  0.00  0.00    +0.003 A 
ATOM     32  C   UNL     1      33.920  19.807  47.712  0.00  0.00    +0.010 A 
BRANCH  23  26
ATOM     26  S   UNL     1      33.598  21.012  52.087  0.00  0.00    +0.056 S 
ATOM     27  O   UNL     1      34.529  22.068  52.408  0.00  0.00    -0.153 OA
ATOM     28  O   UNL     1      34.070  19.928  52.908  0.00  0.00    -0.153 OA
BRANCH  26  29
ATOM     29  N   UNL     1      32.086  21.463  52.481  0.00  0.00    -0.203 NA
ATOM     30  H   UNL     1      31.421  20.634  52.353  0.00  0.00    +0.144 HD
ATOM     31  H   UNL     1      32.063  21.784  53.502  0.00  0.00    +0.144 HD
ENDBRANCH  26  29
ENDBRANCH  23  26
ENDBRANCH   1  21
BRANCH   4   5
ATOM      5  N   UNL     1      37.211  19.499  43.569  0.00  0.00    -0.285 N 
ATOM      6  H   UNL     1      36.319  19.009  43.239  0.00  0.00    +0.155 HD
ATOM      7  C   UNL     1      38.153  19.307  42.493  0.00  0.00    +0.222 C 
ATOM      8  O   UNL     1      38.699  20.226  41.902  0.00  0.00    -0.275 OA
BRANCH   7   9
ATOM      9  C   UNL     1      38.478  17.905  42.089  0.00  0.00    +0.131 C 
BRANCH   9  10
ATOM     10  C   UNL     1      39.432  17.156  42.966  0.00  0.00    -0.039 A 
ATOM     11  C   UNL     1      40.801  17.180  42.687  0.00  0.00    +0.004 A 
ATOM     12  C   UNL     1      41.694  16.488  43.511  0.00  0.00    +0.000 A 
ATOM     13  C   UNL     1      41.212  15.764  44.605  0.00  0.00    +0.000 A 
ATOM     14  C   UNL     1      39.842  15.734  44.882  0.00  0.00    +0.000 A 
ATOM     15  C   UNL     1      38.951  16.433  44.062  0.00  0.00    +0.004 A 
ENDBRANCH   9  10
ENDBRANCH   7   9
ENDBRANCH   4   5
TORSDOF 6
