REMARK  Name = 4bde_ligand
REMARK  1 active torsions:
REMARK  status: ('A' for Active; 'I' for Inactive)
REMARK    1  A    between atoms: C6_6  and  C11_11
REMARK                            x       y       z     vdW  Elec       q    Type
REMARK                         _______ _______ _______ _____ _____    ______ ____
ROOT
ATOM      1  N   UNL     1     -37.850  34.517   5.043  0.00  0.00    -0.297 NA
ATOM      2  C   UNL     1     -37.311  34.495   6.307  0.00  0.00    +0.040 A 
ATOM      3  C   UNL     1     -37.555  33.448   7.239  0.00  0.00    +0.047 A 
ATOM      4  C   UNL     1     -36.954  33.538   8.528  0.00  0.00    +0.019 A 
ATOM      5  C   UNL     1     -36.137  34.590   8.880  0.00  0.00    -0.039 A 
ATOM      6  C   UNL     1     -35.428  34.614  10.214  0.00  0.00    +0.088 C 
ATOM      7  C   UNL     1     -35.920  35.603   7.944  0.00  0.00    +0.012 A 
ATOM      8  C   UNL     1     -38.389  32.374   6.737  0.00  0.00    +0.138 A 
ATOM      9  N   UNL     1     -38.708  31.308   7.503  0.00  0.00    -0.307 N 
ATOM     10  H   UNL     1     -39.308  30.562   7.123  0.00  0.00    +0.187 HD
ATOM     11  H   UNL     1     -38.352  31.241   8.467  0.00  0.00    +0.187 HD
ATOM     12  N   UNL     1     -38.900  32.398   5.458  0.00  0.00    -0.257 NA
ATOM     13  C   UNL     1     -36.467  35.562   6.695  0.00  0.00    +0.019 A 
ATOM     14  C   UNL     1     -38.602  33.471   4.720  0.00  0.00    +0.162 A 
ENDROOT
TORSDOF 0
