REMARK  Name = 5TOB
REMARK  9 active torsions:
REMARK  status: ('A' for Active; 'I' for Inactive)
REMARK    1  A    between atoms: C_1  and  N_16
REMARK    2  A    between atoms: C_2  and  S_14
REMARK    3  A    between atoms: C_5  and  C_9
REMARK    4  A    between atoms: C_6  and  C_19
REMARK    5  A    between atoms: C_7  and  N_16
REMARK    6  A    between atoms: S_14  and  N_16
REMARK    7  A    between atoms: C_19  and  N_20
REMARK    8  A    between atoms: N_20  and  C_21
REMARK    9  A    between atoms: N_27  and  C_28
REMARK                            x       y       z     vdW  Elec       q    Type
REMARK                         _______ _______ _______ _____ _____    ______ ____
ROOT
ATOM     16  C   UNL     1       3.014  -9.477  38.758  0.00  0.00    +0.136 A 
ATOM     17  N   UNL     1       2.034  -9.819  39.625  0.00  0.00    -0.199 NA
ATOM     18  C   UNL     1       2.178  -9.504  40.932  0.00  0.00    +0.221 A 
ATOM     19  N   UNL     1       1.167  -9.820  41.835  0.00  0.00    -0.284 N 
ATOM     20  H   UNL     1       1.449  -9.729  42.863  0.00  0.00    +0.155 HD
ATOM     32  N   UNL     1       3.265  -8.883  41.442  0.00  0.00    -0.222 NA
ATOM     33  C   UNL     1       4.231  -8.555  40.563  0.00  0.00    +0.130 A 
ATOM     34  C   UNL     1       4.171  -8.843  39.208  0.00  0.00    +0.113 A 
ENDROOT
BRANCH  19  21
ATOM     21  C   UNL     1      -0.159 -10.238  41.632  0.00  0.00    +0.034 A 
ATOM     22  C   UNL     1      -0.757 -10.948  42.689  0.00  0.00    +0.029 A 
ATOM     23  C   UNL     1      -2.053 -11.368  42.526  0.00  0.00    -0.016 A 
ATOM     24  C   UNL     1      -2.904 -12.127  43.488  0.00  0.00    +0.133 C 
ATOM     25  C   UNL     1      -4.218 -12.295  42.714  0.00  0.00    +0.222 C 
ATOM     26  O   UNL     1      -5.206 -12.881  43.144  0.00  0.00    -0.275 OA
ATOM     27  N   UNL     1      -4.042 -11.667  41.473  0.00  0.00    -0.285 N 
ATOM     28  H   UNL     1      -4.792 -11.613  40.711  0.00  0.00    +0.155 HD
ATOM     29  C   UNL     1      -2.766 -11.123  41.360  0.00  0.00    +0.037 A 
ATOM     30  C   UNL     1      -2.223 -10.442  40.294  0.00  0.00    +0.025 A 
ATOM     31  C   UNL     1      -0.906 -10.003  40.447  0.00  0.00    +0.025 A 
ENDBRANCH  19  21
BRANCH  34  35
ATOM     35  C   UNL     1       5.262  -8.419  38.285  0.00  0.00    +0.422 C 
ATOM     36  F   UNL     1       5.898  -9.444  37.667  0.00  0.00    -0.166 F 
ATOM     37  F   UNL     1       6.206  -7.635  38.877  0.00  0.00    -0.166 F 
ATOM     38  F   UNL     1       4.772  -7.592  37.311  0.00  0.00    -0.166 F 
ENDBRANCH  34  35
BRANCH  16  14
ATOM     14  N   UNL     1       2.872  -9.776  37.410  0.00  0.00    -0.324 N 
ATOM     15  H   UNL     1       3.576  -9.403  36.696  0.00  0.00    +0.148 HD
BRANCH  14  13
ATOM     13  C   UNL     1       1.762 -10.597  36.983  0.00  0.00    +0.141 C 
BRANCH  13  12
ATOM      7  C   UNL     1      -0.660 -10.275  36.309  0.00  0.00    +0.144 A 
ATOM      8  N   UNL     1      -1.733  -9.510  35.967  0.00  0.00    -0.238 NA
ATOM      9  C   UNL     1      -1.548  -8.172  35.933  0.00  0.00    +0.113 A 
ATOM     10  C   UNL     1      -0.348  -7.532  36.225  0.00  0.00    +0.020 A 
ATOM     11  C   UNL     1       0.735  -8.331  36.569  0.00  0.00    +0.010 A 
ATOM     12  C   UNL     1       0.594  -9.731  36.613  0.00  0.00    +0.011 A 
BRANCH   7   2
ATOM      1  C   UNL     1      -1.634 -12.372  37.433  0.00  0.00    +0.159 C 
ATOM      2  N   UNL     1      -0.888 -11.728  36.329  0.00  0.00    -0.193 N 
BRANCH   2   3
ATOM      3  S   UNL     1      -0.362 -12.680  35.002  0.00  0.00    +0.043 S 
ATOM      4  O   UNL     1      -0.382 -14.088  35.321  0.00  0.00    -0.155 OA
ATOM      5  O   UNL     1       0.751 -12.047  34.307  0.00  0.00    -0.155 OA
ATOM      6  C   UNL     1      -1.798 -12.338  33.985  0.00  0.00    +0.218 C 
ENDBRANCH   2   3
ENDBRANCH   7   2
ENDBRANCH  13  12
ENDBRANCH  14  13
ENDBRANCH  16  14
TORSDOF 7
