REMARK  Name = 3R7Y
REMARK  6 active torsions:
REMARK  status: ('A' for Active; 'I' for Inactive)
REMARK    1  A    between atoms: N_1  and  C_10
REMARK    2  A    between atoms: N_1  and  C_15
REMARK    3  A    between atoms: N_5  and  C_12
REMARK    4  A    between atoms: N_7  and  C_13
REMARK    5  A    between atoms: C_9  and  C_14
REMARK    6  A    between atoms: C_15  and  C_16
REMARK                            x       y       z     vdW  Elec       q    Type
REMARK                         _______ _______ _______ _____ _____    ______ ____
ROOT
ATOM     13  C   UNL     1     118.982  46.029 -47.516  0.00  0.00    +0.042 A 
ATOM     14  C   UNL     1     119.104  45.410 -46.226  0.00  0.00    +0.049 A 
ATOM     15  C   UNL     1     120.321  44.841 -45.752  0.00  0.00    +0.062 A 
ATOM     16  C   UNL     1     121.499  44.890 -46.635  0.00  0.00    +0.148 A 
ATOM     17  C   UNL     1     121.361  45.521 -47.920  0.00  0.00    +0.049 A 
ATOM     27  C   UNL     1     120.138  46.088 -48.371  0.00  0.00    +0.059 A 
ENDROOT
BRANCH  15  21
ATOM     21  N   UNL     1     120.306  44.306 -44.547  0.00  0.00    -0.324 N 
ATOM     22  C   UNL     1     121.266  44.792 -43.486  0.00  0.00    +0.133 C 
ATOM     23  C   UNL     1     120.813  44.431 -42.066  0.00  0.00    +0.178 C 
ATOM     24  O   UNL     1     120.343  43.100 -42.088  0.00  0.00    -0.377 OA
ATOM     25  C   UNL     1     119.068  43.078 -42.709  0.00  0.00    +0.178 C 
ATOM     26  C   UNL     1     119.272  43.264 -44.220  0.00  0.00    +0.133 C 
ENDBRANCH  15  21
BRANCH  27  28
ATOM     28  C   UNL     1     120.096  46.679 -49.639  0.00  0.00    +0.243 C 
ATOM     29  O   UNL     1     119.279  47.537 -49.905  0.00  0.00    -0.270 OA
ATOM     30  N   UNL     1     120.991  46.307 -50.609  0.00  0.00    -0.325 N 
ATOM     31  H   UNL     1     120.952  46.764 -51.576  0.00  0.00    +0.145 HD
ATOM     32  H   UNL     1     121.728  45.560 -50.399  0.00  0.00    +0.145 HD
ENDBRANCH  27  28
BRANCH  16  18
ATOM     18  N   UNL     1     122.665  44.394 -46.333  0.00  0.00    +0.058 N 
ATOM     19  O   UNL     1     123.744  44.732 -47.033  0.00  0.00    -0.126 OA
ATOM     20  O   UNL     1     122.817  43.520 -45.376  0.00  0.00    -0.126 OA
ENDBRANCH  16  18
BRANCH  13   1
ATOM      1  N   UNL     1     117.846  46.536 -47.918  0.00  0.00    -0.339 N 
ATOM      2  H   UNL     1     117.871  47.202 -48.755  0.00  0.00    +0.146 HD
BRANCH   1   3
ATOM      3  C   UNL     1     116.511  46.255 -47.295  0.00  0.00    +0.140 C 
BRANCH   3   4
ATOM      4  C   UNL     1     116.319  47.148 -46.089  0.00  0.00    +0.006 A 
ATOM      5  C   UNL     1     116.005  46.642 -44.822  0.00  0.00    +0.121 A 
ATOM      6  N   UNL     1     115.845  47.426 -43.712  0.00  0.00    -0.223 NA
ATOM      7  C   UNL     1     116.013  48.768 -43.900  0.00  0.00    +0.212 A 
ATOM      8  N   UNL     1     115.877  49.524 -42.882  0.00  0.00    -0.328 N 
ATOM      9  H   UNL     1     115.639  49.100 -41.929  0.00  0.00    +0.145 HD
ATOM     10  H   UNL     1     116.001  50.582 -42.981  0.00  0.00    +0.145 HD
ATOM     11  N   UNL     1     116.316  49.366 -45.083  0.00  0.00    -0.223 NA
ATOM     12  C   UNL     1     116.464  48.539 -46.154  0.00  0.00    +0.121 A 
ENDBRANCH   3   4
ENDBRANCH   1   3
ENDBRANCH  13   1
TORSDOF 6
