REMARK  Name = AY2
REMARK  7 active torsions:
REMARK  status: ('A' for Active; 'I' for Inactive)
REMARK    1  A    between atoms: CAQ_15  and  OAT_31
REMARK    2  A    between atoms: CAV_16  and  CAY_19
REMARK    3  A    between atoms: CAW_17  and  CBC_23
REMARK    4  A    between atoms: CAX_18  and  NAS_27
REMARK    5  A    between atoms: CAZ_20  and  CBB_22
REMARK    6  A    between atoms: CBA_21  and  CBE_25
REMARK    7  A    between atoms: CBD_24  and  OAT_31
REMARK                            x       y       z     vdW  Elec       q    Type
REMARK                         _______ _______ _______ _____ _____    ______ ____
ROOT
ATOM     13  C   UNL     1       4.131  52.817  19.148  0.00  0.00    +0.004 A 
ATOM     14  C   UNL     1       2.839  52.284  19.267  0.00  0.00    +0.002 A 
ATOM     15  C   UNL     1       1.944  52.312  18.198  0.00  0.00    +0.021 A 
ATOM     22  C   UNL     1       2.384  52.853  16.987  0.00  0.00    +0.018 A 
ATOM     23  C   UNL     1       3.672  53.373  16.823  0.00  0.00    +0.074 A 
ATOM     32  C   UNL     1       4.549  53.344  17.911  0.00  0.00    +0.017 A 
ENDROOT
BRANCH  13  12
ATOM      4  C   UNL     1       4.670  53.302  21.506  0.00  0.00    +0.139 A 
ATOM      5  C   UNL     1       5.531  53.184  22.589  0.00  0.00    +0.037 A 
ATOM      6  C   UNL     1       6.735  52.485  22.463  0.00  0.00    +0.006 A 
ATOM      7  C   UNL     1       7.065  51.896  21.244  0.00  0.00    +0.035 A 
ATOM     11  C   UNL     1       6.197  52.036  20.155  0.00  0.00    +0.006 A 
ATOM     12  C   UNL     1       4.995  52.743  20.260  0.00  0.00    +0.034 A 
BRANCH   7   8
ATOM      8  C   UNL     1       8.262  51.173  21.138  0.00  0.00    +0.173 C 
ATOM      9  O   UNL     1       8.880  50.798  22.131  0.00  0.00    -0.291 OA
ATOM     10  C   UNL     1       8.700  50.720  19.742  0.00  0.00    +0.077 C 
ENDBRANCH   7   8
BRANCH   4   3
ATOM      3  O   UNL     1       3.496  53.989  21.587  0.00  0.00    -0.475 OA
BRANCH   3   2
ATOM      1  C   UNL     1       1.760  55.017  22.910  0.00  0.00    +0.051 C 
ATOM      2  C   UNL     1       3.134  54.347  22.930  0.00  0.00    +0.205 C 
ENDBRANCH   3   2
ENDBRANCH   4   3
ENDBRANCH  13  12
BRANCH  15  16
ATOM     16  C   UNL     1       0.690  51.808  18.298  0.00  0.00    +0.102 A 
ATOM     17  C   UNL     1       0.164  51.186  19.342  0.00  0.00    +0.041 A 
ATOM     18  C   UNL     1      -1.080  50.832  18.994  0.00  0.00    +0.097 A 
ATOM     19  N   UNL     1      -1.279  51.243  17.743  0.00  0.00    -0.247 N 
ATOM     20  C   UNL     1      -2.525  51.068  16.952  0.00  0.00    +0.154 C 
ATOM     21  N   UNL     1      -0.227  51.824  17.327  0.00  0.00    -0.169 NA
ENDBRANCH  15  16
BRANCH  23  24
ATOM     24  N   UNL     1       3.963  53.871  15.595  0.00  0.00    -0.173 NA
ATOM     25  C   UNL     1       5.220  53.924  15.065  0.00  0.00    +0.304 C 
ATOM     26  O   UNL     1       6.270  53.599  15.638  0.00  0.00    -0.265 OA
BRANCH  25  27
ATOM     27  C   UNL     1       5.261  54.394  13.813  0.00  0.00    +0.201 A 
ATOM     28  C   UNL     1       4.220  54.880  13.128  0.00  0.00    +0.045 A 
ATOM     29  C   UNL     1       4.646  55.245  11.908  0.00  0.00    +0.044 A 
ATOM     30  C   UNL     1       5.956  54.998  11.788  0.00  0.00    +0.180 A 
ATOM     31  O   UNL     1       6.397  54.435  13.020  0.00  0.00    -0.446 OA
ENDBRANCH  25  27
ENDBRANCH  23  24
TORSDOF 7
