REMARK  Name = 3R6X
REMARK  10 active torsions:
REMARK  status: ('A' for Active; 'I' for Inactive)
REMARK    1  A    between atoms: N_1  and  C_8
REMARK    2  A    between atoms: N_1  and  C_13
REMARK    3  A    between atoms: N_4  and  C_10
REMARK    4  A    between atoms: N_4  and  C_19
REMARK    5  A    between atoms: N_5  and  C_11
REMARK    6  A    between atoms: C_7  and  C_12
REMARK    7  A    between atoms: C_13  and  C_14
REMARK    8  A    between atoms: C_19  and  C_20
REMARK    9  A    between atoms: C_20  and  C_21
REMARK   10  A    between atoms: C_21  and  O_23
REMARK                            x       y       z     vdW  Elec       q    Type
REMARK                         _______ _______ _______ _____ _____    ______ ____
ROOT
ATOM     10  C   UNL     1     -65.287  -9.747  24.303  0.00  0.00    +0.042 A 
ATOM     11  C   UNL     1     -65.544  -9.172  25.590  0.00  0.00    +0.049 A 
ATOM     12  C   UNL     1     -66.845  -8.686  25.947  0.00  0.00    +0.059 A 
ATOM     13  C   UNL     1     -67.928  -8.773  24.993  0.00  0.00    +0.148 A 
ATOM     14  C   UNL     1     -67.668  -9.347  23.711  0.00  0.00    +0.049 A 
ATOM     25  C   UNL     1     -66.370  -9.834  23.353  0.00  0.00    +0.059 A 
ENDROOT
BRANCH  25  26
ATOM     26  C   UNL     1     -66.193 -10.377  22.097  0.00  0.00    +0.243 C 
ATOM     27  O   UNL     1     -65.349 -11.219  21.899  0.00  0.00    -0.270 OA
ATOM     28  N   UNL     1     -66.981  -9.966  21.052  0.00  0.00    -0.325 N 
ATOM     29  H   UNL     1     -66.842 -10.388  20.079  0.00  0.00    +0.145 HD
ATOM     30  H   UNL     1     -67.735  -9.223  21.210  0.00  0.00    +0.145 HD
ENDBRANCH  25  26
BRANCH  13  15
ATOM     15  N   UNL     1     -69.128  -8.349  25.268  0.00  0.00    +0.058 N 
ATOM     16  O   UNL     1     -70.120  -8.534  24.417  0.00  0.00    -0.126 OA
ATOM     17  O   UNL     1     -69.392  -7.735  26.395  0.00  0.00    -0.126 OA
ENDBRANCH  13  15
BRANCH  10   1
ATOM      1  N   UNL     1     -64.099 -10.189  23.982  0.00  0.00    -0.339 N 
ATOM      2  H   UNL     1     -64.018 -10.786  23.098  0.00  0.00    +0.146 HD
BRANCH   1   3
ATOM      3  C   UNL     1     -62.852  -9.928  24.748  0.00  0.00    +0.138 C 
BRANCH   3   4
ATOM      4  C   UNL     1     -62.642 -10.976  25.823  0.00  0.00    -0.012 A 
ATOM      5  C   UNL     1     -62.860 -12.362  25.575  0.00  0.00    +0.008 A 
ATOM      6  C   UNL     1     -62.662 -13.313  26.603  0.00  0.00    +0.020 A 
ATOM      7  C   UNL     1     -62.246 -12.841  27.859  0.00  0.00    +0.111 A 
ATOM      8  N   UNL     1     -62.025 -11.506  28.130  0.00  0.00    -0.263 NA
ATOM      9  C   UNL     1     -62.229 -10.601  27.109  0.00  0.00    +0.115 A 
ENDBRANCH   3   4
ENDBRANCH   1   3
ENDBRANCH  10   1
BRANCH  12  18
ATOM     18  N   UNL     1     -67.042  -8.180  27.115  0.00  0.00    -0.342 N 
ATOM     19  H   UNL     1     -67.979  -8.353  27.601  0.00  0.00    +0.146 HD
BRANCH  18  20
ATOM     20  C   UNL     1     -66.012  -7.364  27.811  0.00  0.00    +0.104 C 
BRANCH  20  21
ATOM     21  C   UNL     1     -65.779  -7.941  29.203  0.00  0.00    +0.046 C 
BRANCH  21  22
ATOM     22  C   UNL     1     -64.295  -8.204  29.402  0.00  0.00    +0.157 C 
BRANCH  22  23
ATOM     23  O   UNL     1     -64.125  -9.350  30.201  0.00  0.00    -0.395 OA
ATOM     24  H   UNL     1     -64.582  -9.197  31.134  0.00  0.00    +0.209 HD
ENDBRANCH  22  23
ENDBRANCH  21  22
ENDBRANCH  20  21
ENDBRANCH  18  20
ENDBRANCH  12  18
TORSDOF 10
