REMARK  Name = 3ndm_ligand
REMARK  3 active torsions:
REMARK  status: ('A' for Active; 'I' for Inactive)
REMARK    1  A    between atoms: C9_9  and  N11_11
REMARK    2  A    between atoms: C12_12  and  C13_13
REMARK    3  A    between atoms: C17_17  and  C18_18
REMARK                            x       y       z     vdW  Elec       q    Type
REMARK                         _______ _______ _______ _____ _____    ______ ____
ROOT
ATOM      6  N   UNL     1     -69.705  -0.216  43.529  0.00  0.00    -0.230 N 
ATOM      7  H   UNL     1     -70.351   0.564  43.407  0.00  0.00    +0.229 HD
ATOM      8  C   UNL     1     -68.719  -0.113  44.485  0.00  0.00    +0.216 C 
ATOM      9  O   UNL     1     -67.893  -1.013  44.645  0.00  0.00    -0.383 OA
ENDROOT
BRANCH   6   5
ATOM      1  C   UNL     1     -68.475  -4.596  39.365  0.00  0.00    +0.168 C 
ATOM      2  C   UNL     1     -68.203  -3.478  40.058  0.00  0.00    +0.197 C 
ATOM      3  C   UNL     1     -69.150  -2.966  41.044  0.00  0.00    -0.013 A 
ATOM      4  C   UNL     1     -68.916  -1.804  41.787  0.00  0.00    +0.017 A 
ATOM      5  C   UNL     1     -69.860  -1.360  42.708  0.00  0.00    +0.081 A 
ATOM     24  C   UNL     1     -71.013  -2.112  42.867  0.00  0.00    +0.060 A 
ATOM     25 CL   UNL     1     -72.159  -1.585  44.016  0.00  0.00    -0.086 Cl
ATOM     26  C   UNL     1     -71.271  -3.244  42.160  0.00  0.00    +0.016 A 
ATOM     27  C   UNL     1     -70.338  -3.692  41.227  0.00  0.00    +0.032 A 
ATOM     28  C   UNL     1     -70.545  -4.905  40.430  0.00  0.00    +0.176 C 
ATOM     29  O   UNL     1     -71.551  -5.564  40.554  0.00  0.00    -0.387 OA
ATOM     30  N   UNL     1     -69.624  -5.303  39.545  0.00  0.00    -0.252 NA
ENDBRANCH   6   5
BRANCH   8  10
ATOM     10  C   UNL     1     -68.599   1.143  45.356  0.00  0.00    +0.174 C 
ATOM     11  C   UNL     1     -69.914   1.919  45.402  0.00  0.00    +0.112 C 
ATOM     19  C   UNL     1     -69.864   2.651  46.751  0.00  0.00    +0.150 C 
ATOM     20  N   UNL     1     -69.257   1.665  47.691  0.00  0.00    +0.231 N 
ATOM     21  H   UNL     1     -69.962   1.057  48.108  0.00  0.00    +0.202 HD
ATOM     22  H   UNL     1     -68.805   2.125  48.481  0.00  0.00    +0.202 HD
ATOM     23  C   UNL     1     -68.277   0.893  46.863  0.00  0.00    +0.158 C 
BRANCH  11  12
ATOM     12  C   UNL     1     -69.733   2.844  44.264  0.00  0.00    -0.032 A 
ATOM     13  C   UNL     1     -70.792   3.062  43.405  0.00  0.00    -0.003 A 
ATOM     14  C   UNL     1     -70.590   3.921  42.323  0.00  0.00    +0.006 A 
ATOM     15  C   UNL     1     -69.345   4.519  42.129  0.00  0.00    +0.033 A 
ATOM     16 CL   UNL     1     -69.134   5.578  40.784  0.00  0.00    -0.077 Cl
ATOM     17  C   UNL     1     -68.290   4.277  42.997  0.00  0.00    +0.006 A 
ATOM     18  C   UNL     1     -68.491   3.428  44.067  0.00  0.00    -0.003 A 
ENDBRANCH  11  12
ENDBRANCH   8  10
TORSDOF 3
