REMARK  Name = 4m14_ligand
REMARK  7 active torsions:
REMARK  status: ('A' for Active; 'I' for Inactive)
REMARK    1  A    between atoms: N1_1  and  C13_13
REMARK    2  A    between atoms: C3_3  and  C10_10
REMARK    3  A    between atoms: C4_4  and  N6_6
REMARK    4  A    between atoms: C21_21  and  O23_23
REMARK    5  A    between atoms: O23_23  and  C24_24
REMARK    6  A    between atoms: C24_24  and  C25_25
REMARK    7  A    between atoms: C24_24  and  C26_26
REMARK                            x       y       z     vdW  Elec       q    Type
REMARK                         _______ _______ _______ _____ _____    ______ ____
ROOT
ATOM      1  N   UNL     1       7.407   4.351  24.100  0.00  0.00    -0.172 N 
ATOM     16  C   UNL     1       6.039   4.413  24.163  0.00  0.00    +0.158 A 
ATOM     17  C   UNL     1       5.605   4.924  22.958  0.00  0.00    +0.097 A 
ATOM     25  C   UNL     1       6.790   5.122  22.207  0.00  0.00    +0.135 A 
ATOM     31  N   UNL     1       7.876   4.765  22.906  0.00  0.00    -0.185 NA
ENDROOT
BRANCH   1   2
ATOM      2  C   UNL     1       8.246   3.877  25.132  0.00  0.00    +0.114 A 
ATOM      3  C   UNL     1       9.450   4.486  25.467  0.00  0.00    +0.012 A 
ATOM      4  C   UNL     1       9.955   5.582  24.788  0.00  0.00    +0.024 A 
ATOM      5  C   UNL     1      11.156   6.162  25.174  0.00  0.00    +0.091 A 
ATOM     10  C   UNL     1      11.865   5.638  26.235  0.00  0.00    +0.029 A 
ATOM     11  C   UNL     1      11.383   4.533  26.905  0.00  0.00    +0.001 A 
ATOM     12  C   UNL     1      10.181   3.969  26.534  0.00  0.00    -0.028 A 
ATOM     13  C   UNL     1       9.733   2.864  27.228  0.00  0.00    -0.014 A 
ATOM     14  C   UNL     1       8.544   2.259  26.874  0.00  0.00    -0.015 A 
ATOM     15  C   UNL     1       7.797   2.776  25.836  0.00  0.00    +0.025 A 
BRANCH   5   6
ATOM      6  O   UNL     1      11.718   7.300  24.600  0.00  0.00    -0.316 OA
BRANCH   6   7
ATOM      7  C   UNL     1      11.182   7.666  23.328  0.00  0.00    +0.140 C 
ATOM      8  C   UNL     1      12.333   8.261  22.550  0.00  0.00    +0.043 C 
ATOM      9  C   UNL     1      10.148   8.754  23.526  0.00  0.00    +0.043 C 
ENDBRANCH   6   7
ENDBRANCH   5   6
ENDBRANCH   1   2
BRANCH  17  18
ATOM     18  N   UNL     1       4.292   5.169  22.561  0.00  0.00    -0.235 N 
ATOM     19  H   UNL     1       4.114   5.864  21.864  0.00  0.00    +0.214 HD
ATOM     20  C   UNL     1       3.225   4.471  23.110  0.00  0.00    +0.276 C 
ATOM     21  O   UNL     1       3.283   3.807  24.149  0.00  0.00    -0.394 OA
ATOM     22  N   UNL     1       2.101   4.589  22.332  0.00  0.00    -0.283 N 
ATOM     23  H   UNL     1       2.130   5.128  21.490  0.00  0.00    +0.181 HD
ATOM     24  H   UNL     1       1.253   4.136  22.607  0.00  0.00    +0.181 HD
ENDBRANCH  17  18
BRANCH  25  26
ATOM     26  C   UNL     1       6.896   5.629  20.862  0.00  0.00    +0.205 C 
ATOM     27  O   UNL     1       5.923   6.054  20.255  0.00  0.00    -0.390 OA
ATOM     28  N   UNL     1       8.166   5.548  20.340  0.00  0.00    -0.301 N 
ATOM     29  H   UNL     1       8.909   5.164  20.889  0.00  0.00    +0.180 HD
ATOM     30  H   UNL     1       8.347   5.873  19.412  0.00  0.00    +0.180 HD
ENDBRANCH  25  26
TORSDOF 5
