REMARK  Name = 4J71
REMARK  1 active torsions:
REMARK  status: ('A' for Active; 'I' for Inactive)
REMARK    1  A    between atoms: C_11  and  C_12
REMARK                            x       y       z     vdW  Elec       q    Type
REMARK                         _______ _______ _______ _____ _____    ______ ____
ROOT
ATOM      1  O   UNL     1     -35.249  30.283  20.231  0.00  0.00    -0.273 OA
ATOM      2  C   UNL     1     -35.889  29.410  19.648  0.00  0.00    +0.238 C 
ATOM      3  C   UNL     1     -36.375  28.306  20.361  0.00  0.00    +0.154 C 
ATOM      4  C   UNL     1     -36.846  28.767  21.743  0.00  0.00    +0.037 C 
ATOM      5  N   UNL     1     -37.474  27.616  19.645  0.00  0.00    -0.331 N 
ATOM      6  H   UNL     1     -38.240  27.118  20.202  0.00  0.00    +0.147 HD
ATOM      7  C   UNL     1     -37.518  27.610  18.251  0.00  0.00    +0.068 A 
ATOM      8  C   UNL     1     -38.244  26.637  17.574  0.00  0.00    +0.028 A 
ATOM      9  C   UNL     1     -38.269  26.659  16.187  0.00  0.00    +0.022 A 
ATOM     10  C   UNL     1     -37.570  27.649  15.507  0.00  0.00    +0.113 A 
ATOM     11  N   UNL     1     -36.847  28.617  16.214  0.00  0.00    -0.238 NA
ATOM     12  C   UNL     1     -36.826  28.591  17.553  0.00  0.00    +0.146 A 
ATOM     13  N   UNL     1     -36.106  29.555  18.268  0.00  0.00    -0.267 N 
ATOM     14  H   UNL     1     -35.717  30.411  17.758  0.00  0.00    +0.156 HD
ENDROOT
TORSDOF 0
