REMARK  Name = 3pix_ligand
REMARK  7 active torsions:
REMARK  status: ('A' for Active; 'I' for Inactive)
REMARK    1  A    between atoms: N2_2  and  C19_19
REMARK    2  A    between atoms: C7_7  and  N8_8
REMARK    3  A    between atoms: N12_12  and  C14_14
REMARK    4  A    between atoms: C15_15  and  C26_26
REMARK    5  A    between atoms: N17_17  and  C25_25
REMARK    6  A    between atoms: C19_19  and  C27_27
REMARK    7  A    between atoms: C19_19  and  C28_28
REMARK                            x       y       z     vdW  Elec       q    Type
REMARK                         _______ _______ _______ _____ _____    ______ ____
ROOT
ATOM      1  N   UNL     1      18.376   5.887  -0.390  0.00  0.00    -0.182 NA
ATOM      2  C   UNL     1      17.645   5.614  -1.477  0.00  0.00    +0.148 A 
ATOM      3  N   UNL     1      16.370   5.148  -1.399  0.00  0.00    -0.241 N 
ATOM      4  H   UNL     1      15.966   4.785  -2.274  0.00  0.00    +0.213 HD
ATOM     12  C   UNL     1      18.264   5.823  -2.813  0.00  0.00    +0.026 A 
ATOM     13  C   UNL     1      17.618   5.579  -3.900  0.00  0.00    +0.004 A 
ATOM     14  C   UNL     1      18.235   5.795  -5.122  0.00  0.00    +0.017 A 
ATOM     15  C   UNL     1      19.518   6.265  -5.193  0.00  0.00    +0.046 A 
ATOM     16  C   UNL     1      20.207   6.520  -4.042  0.00  0.00    +0.030 A 
ATOM     25  C   UNL     1      19.661   6.331  -2.888  0.00  0.00    +0.052 A 
ATOM     26  C   UNL     1      20.347   6.585  -1.708  0.00  0.00    +0.230 A 
ATOM     27  O   UNL     1      21.529   7.012  -1.749  0.00  0.00    -0.396 OA
ATOM     28  N   UNL     1      19.702   6.358  -0.459  0.00  0.00    -0.169 N 
ENDROOT
BRANCH  15  17
ATOM     17  N   UNL     1      20.132   6.476  -6.466  0.00  0.00    -0.298 N 
ATOM     18  C   UNL     1      19.107   6.775  -7.491  0.00  0.00    +0.181 C 
ATOM     19  C   UNL     1      19.737   7.078  -8.850  0.00  0.00    +0.155 C 
ATOM     20  N   UNL     1      20.707   8.174  -8.713  0.00  0.00    +0.236 N 
ATOM     21  H   UNL     1      20.232   8.998  -8.378  0.00  0.00    +0.203 HD
ATOM     22  C   UNL     1      21.329   8.462 -10.017  0.00  0.00    +0.190 C 
ATOM     23  C   UNL     1      21.760   7.794  -7.760  0.00  0.00    +0.155 C 
ATOM     24  C   UNL     1      21.117   7.576  -6.393  0.00  0.00    +0.181 C 
ENDBRANCH  15  17
BRANCH   3   5
ATOM      5  C   UNL     1      15.563   5.103  -0.303  0.00  0.00    +0.166 A 
ATOM      6  N   UNL     1      14.254   4.821  -0.420  0.00  0.00    -0.213 N 
ATOM      7  H   UNL     1      13.731   4.621  -1.284  0.00  0.00    +0.246 HD
ATOM      8  N   UNL     1      13.753   4.859   0.897  0.00  0.00    -0.255 NA
ATOM      9  C   UNL     1      14.793   5.151   1.697  0.00  0.00    -0.017 A 
ATOM     10  C   UNL     1      14.914   5.324   3.188  0.00  0.00    +0.079 C 
ATOM     11  C   UNL     1      15.901   5.296   0.965  0.00  0.00    -0.014 A 
ENDBRANCH   3   5
BRANCH  28  29
ATOM     29  C   UNL     1      20.424   6.630   0.790  0.00  0.00    +0.139 C 
ATOM     30  C   UNL     1      20.407   5.410   1.705  0.00  0.00    +0.043 C 
ATOM     31  C   UNL     1      19.818   7.847   1.479  0.00  0.00    +0.043 C 
ENDBRANCH  28  29
TORSDOF 3
