REMARK  Name = 3nyn_ligand
REMARK  7 active torsions:
REMARK  status: ('A' for Active; 'I' for Inactive)
REMARK    1  A    between atoms: C6_6  and  N6_7
REMARK    2  A    between atoms: C7_8  and  C10_12
REMARK    3  A    between atoms: N9_10  and  C1'_11
REMARK    4  A    between atoms: C2'_15  and  O2'_16
REMARK    5  A    between atoms: C3'_17  and  O3'_18
REMARK    6  A    between atoms: C4'_19  and  C5'_21
REMARK    7  A    between atoms: C5'_21  and  O5'_22
REMARK                            x       y       z     vdW  Elec       q    Type
REMARK                         _______ _______ _______ _____ _____    ______ ____
ROOT
ATOM      1  N   UNL     1     -71.040  17.485  19.279  0.00  0.00    -0.273 NA
ATOM      2  C   UNL     1     -72.093  18.197  19.730  0.00  0.00    +0.118 A 
ATOM      6  C   UNL     1     -73.075  17.515  20.608  0.00  0.00    +0.063 A 
ATOM      7  C   UNL     1     -74.325  17.792  21.338  0.00  0.00    +0.060 A 
ATOM     13  C   UNL     1     -74.705  16.636  21.980  0.00  0.00    +0.164 A 
ATOM     14  N   UNL     1     -73.814  15.658  21.721  0.00  0.00    -0.213 N 
ATOM     27  C   UNL     1     -72.828  16.100  20.925  0.00  0.00    +0.146 A 
ATOM     28  N   UNL     1     -71.727  15.507  20.403  0.00  0.00    -0.275 NA
ATOM     29  C   UNL     1     -70.873  16.187  19.608  0.00  0.00    +0.149 A 
ENDROOT
BRANCH   7   8
ATOM      8  C   UNL     1     -74.942  19.144  21.291  0.00  0.00    +0.178 C 
ATOM      9  O   UNL     1     -74.243  20.136  21.211  0.00  0.00    -0.401 OA
ATOM     10  N   UNL     1     -76.263  19.241  21.346  0.00  0.00    -0.305 N 
ATOM     11  H   UNL     1     -76.834  18.398  21.413  0.00  0.00    +0.180 HD
ATOM     12  H   UNL     1     -76.709  20.158  21.321  0.00  0.00    +0.180 HD
ENDBRANCH   7   8
BRANCH  14  15
ATOM     15  C1* UNL     1     -73.883  14.268  22.241  0.00  0.00    +0.298 C 
ATOM     16  O4* UNL     1     -75.182  13.941  22.752  0.00  0.00    -0.337 OA
ATOM     17  C4* UNL     1     -75.198  14.040  24.179  0.00  0.00    +0.178 C 
ATOM     21  C3* UNL     1     -73.823  14.568  24.576  0.00  0.00    +0.179 C 
ATOM     24  C2* UNL     1     -72.932  14.199  23.417  0.00  0.00    +0.206 C 
BRANCH  21  22
ATOM     22  O3* UNL     1     -73.352  13.984  25.787  0.00  0.00    -0.386 OA
ATOM     23  H3* UNL     1     -73.342  13.028  25.697  0.00  0.00    +0.210 HD
ENDBRANCH  21  22
BRANCH  24  25
ATOM     25  O2* UNL     1     -72.383  12.880  23.533  0.00  0.00    -0.384 OA
ATOM     26  H2* UNL     1     -71.782  12.849  24.281  0.00  0.00    +0.210 HD
ENDBRANCH  24  25
BRANCH  17  18
ATOM     18  C5* UNL     1     -76.378  14.895  24.658  0.00  0.00    +0.190 C 
BRANCH  18  19
ATOM     19  O5* UNL     1     -75.999  15.771  25.740  0.00  0.00    -0.392 OA
ATOM     20  H5* UNL     1     -76.760  16.289  26.013  0.00  0.00    +0.209 HD
ENDBRANCH  18  19
ENDBRANCH  17  18
ENDBRANCH  14  15
BRANCH   2   3
ATOM      3  N   UNL     1     -72.219  19.489  19.377  0.00  0.00    -0.316 N 
ATOM      4  H   UNL     1     -71.522  19.922  18.771  0.00  0.00    +0.182 HD
ATOM      5  H   UNL     1     -73.011  20.035  19.715  0.00  0.00    +0.182 HD
ENDBRANCH   2   3
TORSDOF 7
