REMARK  Name = 5DXU
REMARK  8 active torsions:
REMARK  status: ('A' for Active; 'I' for Inactive)
REMARK    1  A    between atoms: C_1  and  C_2
REMARK    2  A    between atoms: C_2  and  C_3
REMARK    3  A    between atoms: C_2  and  O_15
REMARK    4  A    between atoms: C_4  and  O_15
REMARK    5  A    between atoms: C_7  and  C_23
REMARK    6  A    between atoms: C_12  and  N_26
REMARK    7  A    between atoms: C_12  and  C_27
REMARK    8  A    between atoms: C_12  and  C_28
REMARK                            x       y       z     vdW  Elec       q    Type
REMARK                         _______ _______ _______ _____ _____    ______ ____
ROOT
ATOM      8  C   UNL     1      38.455  16.243  34.197  0.00  0.00    +0.125 A 
ATOM      9  C   UNL     1      37.248  16.909  34.006  0.00  0.00    +0.092 A 
ATOM     10  C   UNL     1      36.120  16.256  33.544  0.00  0.00    +0.135 A 
ATOM     11  O   UNL     1      34.995  16.970  33.373  0.00  0.00    -0.489 OA
ATOM     12  C   UNL     1      33.750  16.555  33.904  0.00  0.00    +0.250 C 
ATOM     13  C   UNL     1      33.059  15.776  32.805  0.00  0.00    +0.164 C 
ATOM     14  N   UNL     1      33.683  14.479  32.567  0.00  0.00    -0.326 N 
ATOM     15  C   UNL     1      35.008  14.086  32.746  0.00  0.00    +0.145 A 
ATOM     16  N   UNL     1      35.072  12.837  32.399  0.00  0.00    -0.224 NA
ATOM     17  C   UNL     1      33.884  12.379  31.986  0.00  0.00    +0.126 A 
ATOM     26  C   UNL     1      33.007  13.405  32.091  0.00  0.00    +0.119 A 
ATOM     27  C   UNL     1      36.175  14.867  33.252  0.00  0.00    +0.059 A 
ATOM     28  C   UNL     1      37.396  14.203  33.450  0.00  0.00    +0.019 A 
ATOM     29  C   UNL     1      38.517  14.873  33.915  0.00  0.00    +0.046 A 
ENDROOT
BRANCH  17  18
ATOM     18  C   UNL     1      33.582  11.018  31.508  0.00  0.00    +0.179 A 
ATOM     19  N   UNL     1      34.464  10.084  31.075  0.00  0.00    -0.241 N 
ATOM     20  N   UNL     1      33.691   8.965  30.726  0.00  0.00    -0.158 NA
ATOM     21  C   UNL     1      32.442   9.265  30.949  0.00  0.00    +0.245 A 
ATOM     25  N   UNL     1      32.372  10.505  31.419  0.00  0.00    -0.213 NA
BRANCH  19  22
ATOM     22  C   UNL     1      35.929  10.171  30.973  0.00  0.00    +0.103 C 
ATOM     23  C   UNL     1      36.390   9.671  29.603  0.00  0.00    +0.032 C 
ATOM     24  C   UNL     1      36.555   9.323  32.080  0.00  0.00    +0.032 C 
ENDBRANCH  19  22
ENDBRANCH  17  18
BRANCH   8   7
ATOM      7  O   UNL     1      39.485  17.009  34.671  0.00  0.00    -0.480 OA
BRANCH   7   6
ATOM      6  C   UNL     1      40.867  16.628  34.766  0.00  0.00    +0.255 C 
ATOM     30  C   UNL     1      41.615  17.839  35.332  0.00  0.00    +0.062 C 
BRANCH   6   1
ATOM      1  C   UNL     1      41.087  15.463  35.697  0.00  0.00    +0.251 C 
ATOM      2  O   UNL     1      41.769  14.515  35.352  0.00  0.00    -0.272 OA
ATOM      3  N   UNL     1      40.501  15.476  36.905  0.00  0.00    -0.326 N 
ATOM      4  H   UNL     1      40.646  14.658  37.579  0.00  0.00    +0.145 HD
ATOM      5  H   UNL     1      39.889  16.305  37.194  0.00  0.00    +0.145 HD
ENDBRANCH   6   1
ENDBRANCH   7   6
ENDBRANCH   8   7
TORSDOF 5
