REMARK  Name = 2ok1_ligand
REMARK  5 active torsions:
REMARK  status: ('A' for Active; 'I' for Inactive)
REMARK    1  A    between atoms: C6_5  and  C8_7
REMARK    2  A    between atoms: C13_12  and  C14_13
REMARK    3  A    between atoms: C18_16  and  C20_18
REMARK    4  A    between atoms: N22_20  and  C23_21
REMARK    5  A    between atoms: C23_21  and  C24_22
REMARK                            x       y       z     vdW  Elec       q    Type
REMARK                         _______ _______ _______ _____ _____    ______ ____
ROOT
ATOM      7  C   UNL     1      -9.221  10.122  22.443  0.00  0.00    -0.020 A 
ATOM      8  C   UNL     1     -10.555  10.452  22.145  0.00  0.00    -0.012 A 
ATOM      9  C   UNL     1     -10.964  11.400  23.035  0.00  0.00    +0.126 A 
ATOM     21  N   UNL     1      -9.906  11.666  23.879  0.00  0.00    -0.275 N 
ATOM     22  H   UNL     1      -9.914  12.344  24.654  0.00  0.00    +0.237 HD
ATOM     23  C   UNL     1      -8.855  10.891  23.522  0.00  0.00    +0.127 A 
ENDROOT
BRANCH   7   6
ATOM      5  C   UNL     1      -7.001   9.021  21.337  0.00  0.00    +0.003 A 
ATOM      6  C   UNL     1      -8.424   9.097  21.682  0.00  0.00    +0.027 A 
ATOM     24  N   UNL     1      -8.994   8.023  21.179  0.00  0.00    -0.223 N 
ATOM     25  H   UNL     1      -9.995   7.791  21.256  0.00  0.00    +0.000 HD
ATOM     26  N   UNL     1      -8.042   7.250  20.529  0.00  0.00    -0.222 NA
ATOM     27  C   UNL     1      -6.853   7.856  20.630  0.00  0.00    +0.164 A 
BRANCH   5   4
ATOM      1  C   UNL     1      -3.406  10.252  21.931  0.00  0.00    +0.035 A 
ATOM      2 CL   UNL     1      -1.792   9.587  21.964  0.00  0.00    -0.072 Cl
ATOM      3  C   UNL     1      -4.511   9.416  21.667  0.00  0.00    +0.009 A 
ATOM      4  C   UNL     1      -5.843   9.953  21.634  0.00  0.00    -0.035 A 
ATOM     28  C   UNL     1      -6.019  11.350  21.861  0.00  0.00    -0.006 A 
ATOM     29  C   UNL     1      -4.909  12.174  22.128  0.00  0.00    -0.006 A 
ATOM     30  C   UNL     1      -3.607  11.632  22.158  0.00  0.00    +0.005 A 
ENDBRANCH   5   4
ENDBRANCH   7   6
BRANCH   9  10
ATOM     10  C   UNL     1     -12.301  12.018  23.073  0.00  0.00    +0.219 C 
ATOM     11  N   UNL     1     -13.248  11.610  22.177  0.00  0.00    -0.276 N 
ATOM     12  H   UNL     1     -13.012  10.896  21.518  0.00  0.00    +0.186 HD
ATOM     20  O   UNL     1     -12.546  12.887  23.899  0.00  0.00    -0.391 OA
BRANCH  11  13
ATOM     13  C   UNL     1     -14.602  12.183  22.146  0.00  0.00    +0.200 C 
BRANCH  13  14
ATOM     14  C   UNL     1     -14.769  12.939  20.855  0.00  0.00    -0.021 A 
ATOM     15  C   UNL     1     -15.139  12.256  19.677  0.00  0.00    -0.003 A 
ATOM     16  C   UNL     1     -15.292  12.970  18.466  0.00  0.00    -0.009 A 
ATOM     17  C   UNL     1     -15.066  14.363  18.432  0.00  0.00    -0.013 A 
ATOM     18  C   UNL     1     -14.696  15.044  19.610  0.00  0.00    -0.009 A 
ATOM     19  C   UNL     1     -14.543  14.334  20.822  0.00  0.00    -0.003 A 
ENDBRANCH  13  14
ENDBRANCH  11  13
ENDBRANCH   9  10
TORSDOF 5
