REMARK  Name = 4fnz_ligand
REMARK  13 active torsions:
REMARK  status: ('A' for Active; 'I' for Inactive)
REMARK    1  A    between atoms: C17_1  and  O1_2
REMARK    2  A    between atoms: O1_2  and  C15_3
REMARK    3  A    between atoms: C14_5  and  O2_6
REMARK    4  A    between atoms: O2_6  and  C18_7
REMARK    5  A    between atoms: C13_8  and  O3_9
REMARK    6  A    between atoms: O3_9  and  C19_10
REMARK    7  A    between atoms: C11_12  and  N4_13
REMARK    8  A    between atoms: C7_19  and  N1_20
REMARK    9  A    between atoms: C4_25  and  C6_26
REMARK   10  A    between atoms: N5_28  and  C20_29
REMARK   11  A    between atoms: C20_29  and  C21_30
REMARK   12  A    between atoms: C25_35  and  O5_36
REMARK   13  A    between atoms: O5_36  and  C26_37
REMARK                            x       y       z     vdW  Elec       q    Type
REMARK                         _______ _______ _______ _____ _____    ______ ____
ROOT
ATOM     15  N   UNL     1      19.818  13.845  60.631  0.00  0.00    -0.287 N 
ATOM     16  C   UNL     1      19.127  12.915  59.699  0.00  0.00    +0.137 C 
ATOM     17  C   UNL     1      17.807  12.530  60.357  0.00  0.00    +0.028 C 
ATOM     18  C   UNL     1      17.022  13.790  60.729  0.00  0.00    +0.029 C 
ATOM     19  C   UNL     1      17.824  14.703  61.685  0.00  0.00    +0.125 C 
ATOM     36  C   UNL     1      19.134  15.094  61.019  0.00  0.00    +0.162 C 
ENDROOT
BRANCH  15  14
ATOM      8  N   UNL     1      23.312  10.706  61.095  0.00  0.00    -0.255 N 
ATOM      9  H   UNL     1      24.192  10.485  61.581  0.00  0.00    +0.215 HD
ATOM     10  C   UNL     1      22.741  11.885  61.397  0.00  0.00    +0.192 A 
ATOM     11  N   UNL     1      23.381  12.674  62.287  0.00  0.00    -0.270 NA
ATOM     12  C   UNL     1      22.891  13.846  62.661  0.00  0.00    +0.084 A 
ATOM     13  C   UNL     1      21.687  14.291  62.125  0.00  0.00    +0.051 A 
ATOM     14  C   UNL     1      21.037  13.467  61.207  0.00  0.00    +0.117 A 
ATOM     37  N   UNL     1      21.578  12.289  60.862  0.00  0.00    -0.239 NA
BRANCH   8   7
ATOM      3  C   UNL     1      21.190   8.659  58.860  0.00  0.00    +0.103 A 
ATOM      4  C   UNL     1      22.167   7.730  58.440  0.00  0.00    +0.135 A 
ATOM      5  C   UNL     1      23.465   7.833  58.932  0.00  0.00    +0.103 A 
ATOM      6  C   UNL     1      23.794   8.855  59.810  0.00  0.00    +0.006 A 
ATOM      7  C   UNL     1      22.860   9.786  60.229  0.00  0.00    +0.038 A 
ATOM     42  C   UNL     1      21.550   9.676  59.759  0.00  0.00    +0.006 A 
BRANCH   3   2
ATOM      1  C   UNL     1      18.882   8.419  59.441  0.00  0.00    +0.228 C 
ATOM      2  O   UNL     1      19.887   8.594  58.400  0.00  0.00    -0.331 OA
ENDBRANCH   3   2
BRANCH   5  38
ATOM     38  O   UNL     1      24.441   6.969  58.558  0.00  0.00    -0.331 OA
ATOM     39  C   UNL     1      25.400   6.812  59.611  0.00  0.00    +0.228 C 
ENDBRANCH   5  38
BRANCH   4  40
ATOM     40  O   UNL     1      21.874   6.713  57.572  0.00  0.00    -0.337 OA
ATOM     41  C   UNL     1      22.403   6.929  56.246  0.00  0.00    +0.221 C 
ENDBRANCH   4  40
ENDBRANCH   8   7
ENDBRANCH  15  14
BRANCH  19  20
ATOM     20  C   UNL     1      17.012  15.950  62.092  0.00  0.00    +0.183 C 
ATOM     21  N   UNL     1      16.859  16.092  63.391  0.00  0.00    -0.276 N 
ATOM     22  H   UNL     1      17.251  15.415  64.013  0.00  0.00    +0.188 HD
ATOM     35  O   UNL     1      16.554  16.762  61.283  0.00  0.00    -0.397 OA
BRANCH  21  23
ATOM     23  C   UNL     1      16.119  17.234  63.934  0.00  0.00    +0.198 C 
BRANCH  23  24
ATOM     24  C   UNL     1      16.432  17.395  65.414  0.00  0.00    -0.030 A 
ATOM     25  C   UNL     1      17.758  17.465  65.800  0.00  0.00    -0.023 A 
ATOM     26  C   UNL     1      18.074  17.613  67.142  0.00  0.00    -0.020 A 
ATOM     27  C   UNL     1      17.078  17.698  68.100  0.00  0.00    +0.009 A 
ATOM     28  C   UNL     1      15.751  17.618  67.706  0.00  0.00    +0.094 A 
ATOM     34  C   UNL     1      15.413  17.478  66.360  0.00  0.00    +0.018 A 
BRANCH  28  29
ATOM     29  O   UNL     1      14.788  17.729  68.651  0.00  0.00    -0.227 OA
BRANCH  29  30
ATOM     30  C   UNL     1      14.360  16.547  69.269  0.00  0.00    +0.546 C 
ATOM     31  F   UNL     1      13.904  15.654  68.354  0.00  0.00    -0.140 F 
ATOM     32  F   UNL     1      13.376  16.956  70.072  0.00  0.00    -0.140 F 
ATOM     33  F   UNL     1      15.354  16.037  69.999  0.00  0.00    -0.140 F 
ENDBRANCH  29  30
ENDBRANCH  28  29
ENDBRANCH  23  24
ENDBRANCH  21  23
ENDBRANCH  19  20
TORSDOF 10
