REMARK  Name = 4ivb_ligand
REMARK  5 active torsions:
REMARK  status: ('A' for Active; 'I' for Inactive)
REMARK    1  A    between atoms: C1_1  and  C2_2
REMARK    2  A    between atoms: C2_2  and  O4_3
REMARK    3  A    between atoms: C2_2  and  C5_4
REMARK    4  A    between atoms: N6_5  and  C18_16
REMARK    5  A    between atoms: C22_19  and  C26_22
REMARK                            x       y       z     vdW  Elec       q    Type
REMARK                         _______ _______ _______ _____ _____    ______ ____
ROOT
ATOM      3  C   UNL     1       8.941  57.542  -0.558  0.00  0.00    +0.152 A 
ATOM      4  N   UNL     1       8.947  58.784  -0.915  0.00  0.00    -0.317 NA
ATOM      5  C   UNL     1       7.800  59.382  -0.533  0.00  0.00    +0.033 A 
ATOM      6  C   UNL     1       7.339  60.689  -0.667  0.00  0.00    +0.061 A 
ATOM      7  N   UNL     1       6.171  61.044  -0.198  0.00  0.00    -0.305 NA
ATOM      8  C   UNL     1       5.387  60.168   0.418  0.00  0.00    +0.120 A 
ATOM      9  N   UNL     1       4.157  60.311   0.953  0.00  0.00    -0.274 N 
ATOM     10  H   UNL     1       3.616  61.188   0.959  0.00  0.00    +0.228 HD
ATOM     11  C   UNL     1       3.731  59.126   1.486  0.00  0.00    +0.113 A 
ATOM     12  C   UNL     1       4.670  58.195   1.309  0.00  0.00    -0.032 A 
ATOM     13  C   UNL     1       5.773  58.827   0.611  0.00  0.00    +0.019 A 
ATOM     14  C   UNL     1       7.031  58.405   0.134  0.00  0.00    +0.089 A 
ATOM     15  N   UNL     1       7.787  57.240   0.101  0.00  0.00    -0.225 N 
ENDROOT
BRANCH  15  16
ATOM     16  C   UNL     1       7.470  55.905   0.644  0.00  0.00    +0.134 C 
ATOM     17  C   UNL     1       6.246  55.347  -0.106  0.00  0.00    +0.038 C 
ATOM     18  C   UNL     1       5.917  53.945   0.429  0.00  0.00    +0.034 C 
ATOM     19  C   UNL     1       5.649  54.032   1.943  0.00  0.00    +0.143 C 
ATOM     22  C   UNL     1       6.830  54.626   2.749  0.00  0.00    +0.034 C 
ATOM     23  C   UNL     1       7.260  55.984   2.168  0.00  0.00    +0.038 C 
BRANCH  19  20
ATOM     20  C   UNL     1       5.391  52.673   2.454  0.00  0.00    +0.093 C 
ATOM     21  N   UNL     1       5.202  51.641   2.892  0.00  0.00    -0.303 NA
ENDBRANCH  19  20
ENDBRANCH  15  16
BRANCH   3   2
ATOM      1  C   UNL     1      11.041  57.151  -1.861  0.00  0.00    +0.065 C 
ATOM      2  C   UNL     1      10.077  56.599  -0.802  0.00  0.00    +0.219 C 
BRANCH   2  24
ATOM     24  O   UNL     1      10.733  56.452   0.469  0.00  0.00    -0.371 OA
ATOM     25  H   UNL     1      10.116  56.110   1.105  0.00  0.00    +0.214 HD
ENDBRANCH   2  24
ENDBRANCH   3   2
TORSDOF 4
