REMARK  Name = 8MT
REMARK  1 active torsions:
REMARK  status: ('A' for Active; 'I' for Inactive)
REMARK    1  A    between atoms: C1_2  and  C_9
REMARK                            x       y       z     vdW  Elec       q    Type
REMARK                         _______ _______ _______ _____ _____    ______ ____
ROOT
ATOM      1  C   UNL     1     140.554  -1.795   3.031  0.00  0.00    +0.019 A 
ATOM      2  C   UNL     1     141.821  -1.477   2.592  0.00  0.00    +0.047 A 
ATOM      3 BR   UNL     1     143.223  -1.450   3.830  0.00  0.00    -0.048 Br
ATOM      4  C   UNL     1     141.936  -1.246   1.254  0.00  0.00    +0.070 A 
ATOM      5  S   UNL     1     140.400  -1.444   0.495  0.00  0.00    -0.075 S 
ATOM      6 BR   UNL     1     143.427  -0.797   0.205  0.00  0.00    -0.041 Br
ATOM      7  C   UNL     1     139.666  -1.825   2.014  0.00  0.00    +0.087 A 
ENDROOT
BRANCH   7   8
ATOM      8  C   UNL     1     138.236  -2.152   1.977  0.00  0.00    +0.288 C 
ATOM      9  O   UNL     1     137.643  -2.466   3.011  0.00  0.00    -0.266 OA
ATOM     10  N   UNL     1     137.681  -2.101   0.772  0.00  0.00    -0.088 NA
ATOM     11  N   UNL     1     136.333  -2.452   0.553  0.00  0.00    +0.007 NA
ENDBRANCH   7   8
TORSDOF 1
