REMARK  Name = 3vf8_ligand
REMARK  9 active torsions:
REMARK  status: ('A' for Active; 'I' for Inactive)
REMARK    1  A    between atoms: CAZ_1  and  CAY_2
REMARK    2  A    between atoms: CAY_2  and  OAX_3
REMARK    3  A    between atoms: OAX_3  and  CAB_4
REMARK    4  A    between atoms: CAF_13  and  CAJ_14
REMARK    5  A    between atoms: CAN_18  and  NAO_19
REMARK    6  A    between atoms: NAQ_22  and  CAU_23
REMARK    7  A    between atoms: NAQ_22  and  CAS_25
REMARK    8  A    between atoms: CAU_23  and  CAV_24
REMARK    9  A    between atoms: CAS_25  and  CAT_26
REMARK                            x       y       z     vdW  Elec       q    Type
REMARK                         _______ _______ _______ _____ _____    ______ ____
ROOT
ATOM     12  C   UNL     1      -3.403  -0.821 -15.542  0.00  0.00    +0.152 A 
ATOM     13  C   UNL     1      -4.063   0.205 -14.886  0.00  0.00    +0.105 A 
ATOM     23  C   UNL     1      -5.323   0.170 -15.310  0.00  0.00    +0.104 A 
ATOM     24  N   UNL     1      -5.406  -0.853 -16.172  0.00  0.00    -0.213 NA
ATOM     25  N   UNL     1      -4.312  -1.419 -16.309  0.00  0.00    -0.219 N 
ATOM     26  H   UNL     1      -4.135  -2.220 -16.916  0.00  0.00    +0.247 HD
ENDROOT
BRANCH  12  11
ATOM      4  C   UNL     1       2.255  -2.523 -15.421  0.00  0.00    +0.112 A 
ATOM      5  C   UNL     1       2.354  -1.514 -14.461  0.00  0.00    +0.145 A 
ATOM      6  C   UNL     1       1.231  -0.767 -14.104  0.00  0.00    +0.013 A 
ATOM      7  C   UNL     1       0.001  -1.036 -14.706  0.00  0.00    +0.012 A 
ATOM      8  C   UNL     1      -0.104  -2.030 -15.674  0.00  0.00    +0.065 A 
ATOM      9  N   UNL     1      -1.373  -2.045 -16.076  0.00  0.00    -0.260 N 
ATOM     10  H   UNL     1      -1.765  -2.663 -16.786  0.00  0.00    +0.225 HD
ATOM     11  C   UNL     1      -2.047  -1.115 -15.393  0.00  0.00    +0.144 A 
ATOM     27  N   UNL     1      -1.206  -0.505 -14.558  0.00  0.00    -0.329 NA
ATOM     28  F   UNL     1       3.542  -1.264 -13.874  0.00  0.00    -0.198 F 
ATOM     29  C   UNL     1       1.020  -2.780 -16.033  0.00  0.00    +0.029 A 
BRANCH   4   3
ATOM      3  O   UNL     1       3.393  -3.197 -15.765  0.00  0.00    -0.324 OA
BRANCH   3   2
ATOM      1  C   UNL     1       4.572  -5.006 -16.765  0.00  0.00    +0.039 C 
ATOM      2  C   UNL     1       3.222  -4.553 -16.205  0.00  0.00    +0.187 C 
ENDBRANCH   3   2
ENDBRANCH   4   3
ENDBRANCH  12  11
BRANCH  13  14
ATOM     14  N   UNL     1      -3.479   1.091 -14.062  0.00  0.00    -0.226 N 
ATOM     15  H   UNL     1      -2.666   0.758 -13.543  0.00  0.00    +0.221 HD
ATOM     16  C   UNL     1      -3.844   2.367 -13.843  0.00  0.00    +0.286 C 
ATOM     17  N   UNL     1      -3.063   3.081 -13.018  0.00  0.00    -0.255 N 
ATOM     22  O   UNL     1      -4.856   2.866 -14.339  0.00  0.00    -0.392 OA
BRANCH  17  18
ATOM     18  C   UNL     1      -3.385   4.480 -12.683  0.00  0.00    +0.135 C 
ATOM     19  C   UNL     1      -2.933   5.395 -13.824  0.00  0.00    +0.030 C 
ENDBRANCH  17  18
BRANCH  17  20
ATOM     20  C   UNL     1      -1.847   2.514 -12.407  0.00  0.00    +0.135 C 
ATOM     21  C   UNL     1      -0.628   2.953 -13.220  0.00  0.00    +0.030 C 
ENDBRANCH  17  20
ENDBRANCH  13  14
TORSDOF 6
