REMARK  Name = 4i0s_ligand
REMARK  6 active torsions:
REMARK  status: ('A' for Active; 'I' for Inactive)
REMARK    1  A    between atoms: C2_2  and  C10_10
REMARK    2  A    between atoms: C7_7  and  C11_11
REMARK    3  A    between atoms: N13_13  and  C14_14
REMARK    4  A    between atoms: C14_14  and  C25_25
REMARK    5  A    between atoms: C14_14  and  C26_26
REMARK    6  A    between atoms: N16_16  and  C23_23
REMARK                            x       y       z     vdW  Elec       q    Type
REMARK                         _______ _______ _______ _____ _____    ______ ____
ROOT
ATOM      1  C   UNL     1       2.520  -1.663  15.698  0.00  0.00    +0.116 A 
ATOM      2  N   UNL     1       3.799  -1.547  15.981  0.00  0.00    -0.260 NA
ATOM      3  C   UNL     1       4.486  -0.499  15.540  0.00  0.00    +0.169 A 
ATOM      4  N   UNL     1       5.795  -0.120  15.676  0.00  0.00    -0.247 N 
ATOM      5  H   UNL     1       6.508  -0.653  16.194  0.00  0.00    +0.239 HD
ATOM      6  C   UNL     1       6.024   1.049  15.038  0.00  0.00    +0.177 A 
ATOM      7  C   UNL     1       4.871   1.478  14.443  0.00  0.00    +0.075 A 
ATOM     15  C   UNL     1       3.839   0.480  14.759  0.00  0.00    +0.084 A 
ATOM     16  N   UNL     1       2.546   0.363  14.472  0.00  0.00    -0.291 NA
ATOM     17  C   UNL     1       1.872  -0.693  14.927  0.00  0.00    +0.071 A 
ENDROOT
BRANCH  17  18
ATOM     18  C   UNL     1       0.431  -0.864  14.644  0.00  0.00    +0.085 A 
ATOM     19  C   UNL     1      -0.444   0.044  13.895  0.00  0.00    +0.021 A 
ATOM     20  C   UNL     1      -0.247   1.266  13.230  0.00  0.00    -0.003 A 
ATOM     21  C   UNL     1      -1.306   1.876  12.608  0.00  0.00    -0.004 A 
ATOM     22  C   UNL     1      -2.566   1.281  12.632  0.00  0.00    +0.032 A 
ATOM     23 CL   UNL     1      -3.912   2.041  11.846  0.00  0.00    -0.074 Cl
ATOM     24  C   UNL     1      -2.780   0.082  13.274  0.00  0.00    +0.037 A 
ATOM     25  C   UNL     1      -1.723  -0.554  13.917  0.00  0.00    +0.095 A 
ATOM     26  N   UNL     1      -1.617  -1.721  14.626  0.00  0.00    -0.198 N 
ATOM     27  C   UNL     1      -2.695  -2.677  14.910  0.00  0.00    +0.233 C 
ATOM     28  N   UNL     1      -0.298  -1.872  15.055  0.00  0.00    -0.187 NA
ENDBRANCH  17  18
BRANCH   7   8
ATOM      8  C   UNL     1       4.684   2.716  13.683  0.00  0.00    +0.183 C 
ATOM      9  N   UNL     1       3.438   3.050  13.263  0.00  0.00    -0.289 N 
ATOM     10  H   UNL     1       2.683   2.426  13.467  0.00  0.00    +0.184 HD
ATOM     14  O   UNL     1       5.652   3.428  13.481  0.00  0.00    -0.402 OA
BRANCH   9  11
ATOM     11  C   UNL     1       3.146   4.283  12.524  0.00  0.00    +0.090 C 
ATOM     12  C   UNL     1       2.511   5.285  13.496  0.00  0.00    +0.033 C 
ATOM     13  C   UNL     1       2.132   3.989  11.415  0.00  0.00    +0.033 C 
ENDBRANCH   9  11
ENDBRANCH   7   8
TORSDOF 3
