REMARK  Name = 5C8K
REMARK  4 active torsions:
REMARK  status: ('A' for Active; 'I' for Inactive)
REMARK    1  A    between atoms: C_9  and  O_11
REMARK    2  A    between atoms: C_10  and  O_11
REMARK    3  A    between atoms: N_15  and  C_16
REMARK    4  A    between atoms: N_24  and  C_25
REMARK                            x       y       z     vdW  Elec       q    Type
REMARK                         _______ _______ _______ _____ _____    ______ ____
ROOT
ATOM      1  C   UNL     1     -51.542  -2.357 -28.072  0.00  0.00    +0.050 C 
ATOM      2  C   UNL     1     -50.398  -1.774 -27.215  0.00  0.00    +0.121 C 
ATOM      5  C   UNL     1     -50.672  -1.957 -25.708  0.00  0.00    +0.050 C 
ATOM      6  C   UNL     1     -52.000  -1.311 -25.307  0.00  0.00    +0.110 C 
ATOM      7  N   UNL     1     -53.133  -1.519 -26.251  0.00  0.00    -0.299 N 
ATOM      8  C   UNL     1     -54.130  -0.580 -25.965  0.00  0.00    +0.220 A 
ATOM      9  N   UNL     1     -54.011   0.214 -24.893  0.00  0.00    -0.199 NA
ATOM     10  C   UNL     1     -54.945   1.122 -24.588  0.00  0.00    +0.129 A 
ATOM     11  N   UNL     1     -54.868   1.950 -23.471  0.00  0.00    -0.284 N 
ATOM     12  H   UNL     1     -55.372   2.891 -23.541  0.00  0.00    +0.155 HD
ATOM     27  C   UNL     1     -56.064   1.249 -25.421  0.00  0.00    +0.063 A 
ATOM     28  C   UNL     1     -56.155   0.428 -26.529  0.00  0.00    +0.118 A 
ATOM     29  N   UNL     1     -55.198  -0.459 -26.763  0.00  0.00    -0.223 NA
ATOM     30  C   UNL     1     -52.837  -1.618 -27.715  0.00  0.00    +0.110 C 
ENDROOT
BRANCH  11  13
ATOM     13  C   UNL     1     -54.205   1.688 -22.269  0.00  0.00    +0.126 A 
ATOM     14  N   UNL     1     -54.533   2.451 -21.222  0.00  0.00    -0.238 NA
ATOM     15  C   UNL     1     -53.941   2.318 -20.045  0.00  0.00    +0.142 A 
ATOM     16  C   UNL     1     -52.944   1.346 -19.853  0.00  0.00    +0.107 A 
ATOM     17  N   UNL     1     -52.179   0.968 -18.794  0.00  0.00    -0.234 NA
ATOM     18  C   UNL     1     -51.390  -0.003 -19.152  0.00  0.00    +0.200 A 
ATOM     19  N   UNL     1     -51.588  -0.331 -20.467  0.00  0.00    -0.327 N 
ATOM     25  C   UNL     1     -52.573   0.514 -20.941  0.00  0.00    +0.074 A 
ATOM     26  C   UNL     1     -53.206   0.713 -22.166  0.00  0.00    +0.071 A 
BRANCH  19  20
ATOM     20  C   UNL     1     -50.864  -1.350 -21.253  0.00  0.00    +0.089 C 
ATOM     21  C   UNL     1     -49.998  -2.285 -20.389  0.00  0.00    +0.025 C 
ATOM     22  C   UNL     1     -48.542  -1.771 -20.515  0.00  0.00    +0.002 C 
ATOM     23  C   UNL     1     -48.617  -0.441 -21.311  0.00  0.00    +0.002 C 
ATOM     24  C   UNL     1     -49.855  -0.672 -22.206  0.00  0.00    +0.025 C 
ENDBRANCH  19  20
ENDBRANCH  11  13
BRANCH   2   3
ATOM      3  O   UNL     1     -49.071  -2.198 -27.594  0.00  0.00    -0.380 OA
ATOM      4  C   UNL     1     -48.666  -3.560 -27.350  0.00  0.00    +0.194 C 
ENDBRANCH   2   3
TORSDOF 3
