REMARK  Name = 5N7V
REMARK  5 active torsions:
REMARK  status: ('A' for Active; 'I' for Inactive)
REMARK    1  A    between atoms: C_3  and  N_12
REMARK    2  A    between atoms: C_11  and  N_12
REMARK    3  A    between atoms: N_17  and  C_18
REMARK    4  A    between atoms: C_19  and  C_20
REMARK    5  A    between atoms: C_24  and  N_25
REMARK                            x       y       z     vdW  Elec       q    Type
REMARK                         _______ _______ _______ _____ _____    ______ ____
ROOT
ATOM      1  C   UNL     1      36.203  43.224  37.906  0.00  0.00    +0.142 C 
ATOM      2  N   UNL     1      35.436  44.303  38.185  0.00  0.00    -0.309 N 
ATOM      3  H   UNL     1      35.098  44.955  37.407  0.00  0.00    +0.170 HD
ATOM      4  C   UNL     1      35.108  44.534  39.480  0.00  0.00    +0.232 C 
ATOM      5  N   UNL     1      34.374  45.538  39.956  0.00  0.00    -0.212 NA
ATOM     19  N   UNL     1      35.540  43.736  40.425  0.00  0.00    -0.195 NA
ATOM     20  C   UNL     1      36.281  42.683  40.179  0.00  0.00    +0.152 C 
ATOM     29  N   UNL     1      36.639  42.767  36.722  0.00  0.00    -0.331 NA
ATOM     30  H   UNL     1      36.459  43.195  35.758  0.00  0.00    +0.168 HD
ATOM     31  C   UNL     1      37.343  41.670  36.996  0.00  0.00    +0.198 C 
ATOM     32  N   UNL     1      37.331  41.432  38.337  0.00  0.00    -0.231 NA
ATOM     33  C   UNL     1      36.627  42.389  38.906  0.00  0.00    +0.145 C 
ENDROOT
BRANCH   5   6
ATOM      6  C   UNL     1      34.192  45.619  41.317  0.00  0.00    +0.071 A 
ATOM      7  C   UNL     1      33.939  44.503  42.139  0.00  0.00    +0.030 A 
ATOM      8  C   UNL     1      33.748  44.665  43.502  0.00  0.00    +0.025 A 
ATOM      9  C   UNL     1      33.820  45.944  44.063  0.00  0.00    +0.030 A 
ATOM     16  C   UNL     1      34.079  47.039  43.258  0.00  0.00    +0.028 A 
ATOM     17  C   UNL     1      34.264  46.898  41.898  0.00  0.00    -0.023 A 
ATOM     18  C   UNL     1      34.526  48.039  41.156  0.00  0.00    +0.046 C 
BRANCH   9  10
ATOM     10  N   UNL     1      33.629  46.149  45.374  0.00  0.00    -0.326 N 
ATOM     11  C   UNL     1      34.396  45.391  46.392  0.00  0.00    +0.133 C 
ATOM     12  C   UNL     1      33.563  44.993  47.619  0.00  0.00    +0.178 C 
ATOM     13  O   UNL     1      32.451  45.865  47.809  0.00  0.00    -0.377 OA
ATOM     14  C   UNL     1      32.684  47.203  47.309  0.00  0.00    +0.178 C 
ATOM     15  C   UNL     1      32.637  47.160  45.784  0.00  0.00    +0.133 C 
ENDBRANCH   9  10
ENDBRANCH   5   6
BRANCH  20  21
ATOM     21  N   UNL     1      36.538  42.046  41.331  0.00  0.00    -0.324 NA
ATOM     22  H   UNL     1      35.977  42.415  42.164  0.00  0.00    +0.148 HD
BRANCH  21  23
ATOM     23  C   UNL     1      37.410  40.979  41.656  0.00  0.00    +0.072 C 
ATOM     24  C   UNL     1      36.620  39.824  42.262  0.00  0.00    +0.022 C 
ATOM     25  C   UNL     1      35.802  40.321  43.393  0.00  0.00    +0.002 C 
ATOM     26  C   UNL     1      36.806  40.466  44.545  0.00  0.00    +0.000 C 
ATOM     27  C   UNL     1      38.029  41.373  44.221  0.00  0.00    +0.002 C 
ATOM     28  C   UNL     1      38.423  41.477  42.735  0.00  0.00    +0.022 C 
ENDBRANCH  21  23
ENDBRANCH  20  21
TORSDOF 4
