REMARK  Name = 5J79
REMARK  6 active torsions:
REMARK  status: ('A' for Active; 'I' for Inactive)
REMARK    1  A    between atoms: N_1  and  C_5
REMARK    2  A    between atoms: N_1  and  C_6
REMARK    3  A    between atoms: C_3  and  O_22
REMARK    4  A    between atoms: C_10  and  S_12
REMARK    5  A    between atoms: S_12  and  C_14
REMARK    6  A    between atoms: C_20  and  C_21
REMARK                            x       y       z     vdW  Elec       q    Type
REMARK                         _______ _______ _______ _____ _____    ______ ____
ROOT
ATOM      3  C   UNL     1      50.540  53.604  22.399  0.00  0.00    +0.042 A 
ATOM      4  C   UNL     1      51.753  53.877  21.767  0.00  0.00    +0.043 A 
ATOM      5  C   UNL     1      52.850  53.031  21.933  0.00  0.00    +0.113 A 
ATOM      6  N   UNL     1      52.811  51.930  22.703  0.00  0.00    -0.255 NA
ATOM      7  C   UNL     1      51.652  51.627  23.345  0.00  0.00    +0.073 A 
ATOM      8  C   UNL     1      51.626  50.490  24.138  0.00  0.00    +0.030 A 
ATOM      9  C   UNL     1      50.465  50.148  24.817  0.00  0.00    +0.029 A 
ATOM     10  C   UNL     1      49.318  50.939  24.719  0.00  0.00    +0.089 A 
ATOM     15  C   UNL     1      49.318  52.060  23.933  0.00  0.00    +0.039 A 
ATOM     16  C   UNL     1      50.470  52.431  23.231  0.00  0.00    +0.023 A 
ENDROOT
BRANCH  10  11
ATOM     11  S   UNL     1      47.858  50.471  25.636  0.00  0.00    -0.006 S 
ATOM     12  O   UNL     1      47.799  49.037  25.665  0.00  0.00    -0.170 OA
ATOM     13  O   UNL     1      46.725  51.201  25.123  0.00  0.00    -0.170 OA
ATOM     14  C   UNL     1      48.179  51.015  27.187  0.00  0.00    +0.200 C 
ENDBRANCH  10  11
BRANCH   3   1
ATOM      1  N   UNL     1      49.429  54.407  22.252  0.00  0.00    -0.314 N 
ATOM      2  H   UNL     1      48.537  54.054  22.727  0.00  0.00    +0.152 HD
BRANCH   1  17
ATOM     17  C   UNL     1      49.312  55.594  21.581  0.00  0.00    +0.038 A 
ATOM     18  C   UNL     1      49.434  55.651  20.184  0.00  0.00    -0.029 A 
ATOM     19  C   UNL     1      49.310  56.892  19.554  0.00  0.00    +0.009 A 
ATOM     20  C   UNL     1      49.078  58.064  20.262  0.00  0.00    +0.046 A 
ATOM     21  C   UNL     1      48.963  57.999  21.648  0.00  0.00    +0.119 A 
ATOM     24  C   UNL     1      49.687  54.422  19.331  0.00  0.00    +0.045 C 
ATOM     25  C   UNL     1      49.079  56.772  22.298  0.00  0.00    +0.069 A 
BRANCH  21  22
ATOM     22  O   UNL     1      48.731  59.138  22.368  0.00  0.00    -0.507 OA
ATOM     23  H   UNL     1      49.515  59.818  22.210  0.00  0.00    +0.292 HD
ENDBRANCH  21  22
ENDBRANCH   1  17
ENDBRANCH   3   1
TORSDOF 4
