REMARK  Name = 2BHE
REMARK  0 active torsions:
REMARK  status: ('A' for Active; 'I' for Inactive)
REMARK                            x       y       z     vdW  Elec       q    Type
REMARK                         _______ _______ _______ _____ _____    ______ ____
ROOT
ATOM      1  C   UNL     1      23.857   8.519   8.177  0.00  0.00    +0.045 A 
ATOM      2  C   UNL     1      23.434   9.820   8.373  0.00  0.00    +0.013 A 
ATOM      3  C   UNL     1      22.190  10.171   7.796  0.00  0.00    +0.001 A 
ATOM      4  C   UNL     1      21.439   9.247   7.032  0.00  0.00    +0.002 A 
ATOM      5  C   UNL     1      21.882   7.921   6.834  0.00  0.00    +0.024 A 
ATOM      6  C   UNL     1      23.142   7.590   7.437  0.00  0.00    +0.042 A 
ATOM      7  N   UNL     1      23.792   6.350   7.351  0.00  0.00    -0.310 N 
ATOM      8  H   UNL     1      23.430   5.492   6.823  0.00  0.00    +0.152 HD
ATOM      9  C   UNL     1      24.996   6.419   8.072  0.00  0.00    +0.092 C 
ATOM     10  C   UNL     1      25.828   5.412   8.174  0.00  0.00    +0.071 C 
ATOM     11  C   UNL     1      27.147   5.257   8.887  0.00  0.00    +0.011 A 
ATOM     12  C   UNL     1      27.956   6.106   9.667  0.00  0.00    +0.026 A 
ATOM     13  C   UNL     1      29.161   5.558  10.166  0.00  0.00    +0.019 A 
ATOM     14 BR   UNL     1      30.282   6.625  11.164  0.00  0.00    -0.050 Br
ATOM     15  C   UNL     1      29.517   4.215   9.941  0.00  0.00    +0.017 A 
ATOM     16  C   UNL     1      28.688   3.390   9.165  0.00  0.00    +0.025 A 
ATOM     17  C   UNL     1      27.564   3.930   8.644  0.00  0.00    +0.042 A 
ATOM     18  N   UNL     1      26.594   3.247   7.889  0.00  0.00    -0.281 N 
ATOM     19  H   UNL     1      26.622   2.203   7.659  0.00  0.00    +0.155 HD
ATOM     20  C   UNL     1      25.601   4.116   7.488  0.00  0.00    +0.251 C 
ATOM     21  O   UNL     1      24.565   3.778   6.870  0.00  0.00    -0.270 OA
ATOM     22  C   UNL     1      25.086   7.834   8.634  0.00  0.00    +0.209 C 
ATOM     23  O   UNL     1      25.979   8.283   9.322  0.00  0.00    -0.285 OA
ENDROOT
TORSDOF 0
