REMARK  Name = 4kio_ligand
REMARK  4 active torsions:
REMARK  status: ('A' for Active; 'I' for Inactive)
REMARK    1  A    between atoms: C2_2  and  C3_3
REMARK    2  A    between atoms: C8_8  and  N10_10
REMARK    3  A    between atoms: C13_13  and  C14_14
REMARK    4  A    between atoms: C14_14  and  N15_15
REMARK                            x       y       z     vdW  Elec       q    Type
REMARK                         _______ _______ _______ _____ _____    ______ ____
ROOT
ATOM      7  N   UNL     1       8.231  10.945   2.246  0.00  0.00    -0.288 N 
ATOM      8  H   UNL     1       7.851  11.704   2.830  0.00  0.00    +0.186 HD
ATOM      9  C   UNL     1       7.398  10.022   1.785  0.00  0.00    +0.167 A 
ATOM     10  N   UNL     1       7.928   9.146   0.893  0.00  0.00    -0.245 NA
ATOM     11  C   UNL     1       7.047   8.254   0.451  0.00  0.00    +0.136 A 
ATOM     12  N   UNL     1       7.531   7.287  -0.499  0.00  0.00    -0.213 N 
ATOM     13  H   UNL     1       6.869   6.524  -0.703  0.00  0.00    +0.232 HD
ATOM     14  C   UNL     1       8.683   7.204  -1.161  0.00  0.00    +0.215 A 
ATOM     15  S   UNL     1       9.891   8.424  -0.911  0.00  0.00    +0.054 S 
ATOM     16  C   UNL     1      10.885   7.582  -2.018  0.00  0.00    +0.121 A 
ATOM     17  N   UNL     1      12.117   7.982  -2.357  0.00  0.00    -0.291 NA
ATOM     18  C   UNL     1      12.801   7.237  -3.223  0.00  0.00    +0.071 A 
ATOM     19  C   UNL     1      12.237   6.095  -3.733  0.00  0.00    +0.016 A 
ATOM     20  C   UNL     1      10.952   5.676  -3.383  0.00  0.00    +0.023 A 
ATOM     21  C   UNL     1      10.241   6.453  -2.493  0.00  0.00    +0.042 A 
ATOM     22  N   UNL     1       8.973   6.238  -2.000  0.00  0.00    -0.291 NA
ATOM     23  C   UNL     1       5.736   8.270   0.874  0.00  0.00    +0.057 A 
ATOM     24  C   UNL     1       5.300   9.217   1.789  0.00  0.00    +0.063 A 
ATOM     33  N   UNL     1       6.154  10.115   2.270  0.00  0.00    -0.267 NA
ENDROOT
BRANCH   7   6
ATOM      3  C   UNL     1      12.759  11.971   3.127  0.00  0.00    +0.198 C 
ATOM      4  N   UNL     1      11.591  11.861   2.420  0.00  0.00    -0.271 N 
ATOM      5  C   UNL     1      10.345  11.664   3.046  0.00  0.00    +0.165 C 
ATOM      6  C   UNL     1       9.625  10.933   1.970  0.00  0.00    +0.122 C 
ATOM     34  C   UNL     1      10.004  11.664   0.728  0.00  0.00    +0.054 C 
ATOM     35  C   UNL     1      11.468  11.911   0.980  0.00  0.00    +0.140 C 
ATOM     36  O   UNL     1      13.837  12.143   2.580  0.00  0.00    -0.388 OA
BRANCH   3   2
ATOM      1  C   UNL     1      13.810  11.990   5.261  0.00  0.00    +0.059 C 
ATOM      2  C   UNL     1      12.659  11.879   4.603  0.00  0.00    +0.077 C 
ENDBRANCH   3   2
ENDBRANCH   7   6
BRANCH  24  25
ATOM     25  C   UNL     1       3.858   9.249   2.241  0.00  0.00    +0.222 C 
BRANCH  25  26
ATOM     26  N   UNL     1       3.665   9.523   3.650  0.00  0.00    +0.254 N 
ATOM     27  H   UNL     1       4.075  10.411   3.894  0.00  0.00    +0.205 HD
ATOM     28  C   UNL     1       2.207   9.566   3.824  0.00  0.00    +0.161 C 
ATOM     29  C   UNL     1       1.836   9.616   5.300  0.00  0.00    +0.210 C 
ATOM     30  O   UNL     1       2.301   8.425   5.961  0.00  0.00    -0.369 OA
ATOM     31  C   UNL     1       3.734   8.462   5.925  0.00  0.00    +0.210 C 
ATOM     32  C   UNL     1       4.266   8.464   4.489  0.00  0.00    +0.161 C 
ENDBRANCH  25  26
ENDBRANCH  24  25
TORSDOF 4
