REMARK  Name = 3VS0
REMARK  5 active torsions:
REMARK  status: ('A' for Active; 'I' for Inactive)
REMARK    1  A    between atoms: C_2  and  C_3
REMARK    2  A    between atoms: N_9  and  C_10
REMARK    3  A    between atoms: C_13  and  C_16
REMARK    4  A    between atoms: C_18  and  N_19
REMARK    5  A    between atoms: N_24  and  C_26
REMARK                            x       y       z     vdW  Elec       q    Type
REMARK                         _______ _______ _______ _____ _____    ______ ____
ROOT
ATOM      9  C   UNL     1     -42.079  -0.365  -9.693  0.00  0.00    +0.012 A 
ATOM     10  C   UNL     1     -43.399   0.048  -9.668  0.00  0.00    +0.097 A 
ATOM     11  N   UNL     1     -43.463   1.302  -9.212  0.00  0.00    -0.328 N 
ATOM     17  C   UNL     1     -42.220   1.736  -8.952  0.00  0.00    +0.147 A 
ATOM     18  N   UNL     1     -41.755   2.920  -8.488  0.00  0.00    -0.218 NA
ATOM     19  C   UNL     1     -40.442   3.107  -8.304  0.00  0.00    +0.225 A 
ATOM     20  N   UNL     1     -39.557   2.139  -8.574  0.00  0.00    -0.220 NA
ATOM     21  C   UNL     1     -39.965   0.939  -9.039  0.00  0.00    +0.129 A 
ATOM     25  C   UNL     1     -41.323   0.712  -9.238  0.00  0.00    +0.066 A 
ENDROOT
BRANCH   9   8
ATOM      5  C   UNL     1     -40.902  -4.282 -10.940  0.00  0.00    +0.034 A 
ATOM      6  C   UNL     1     -40.447  -3.773  -9.731  0.00  0.00    +0.024 A 
ATOM      7  C   UNL     1     -40.819  -2.496  -9.332  0.00  0.00    +0.010 A 
ATOM      8  C   UNL     1     -41.658  -1.727 -10.133  0.00  0.00    -0.016 A 
ATOM     26  C   UNL     1     -42.136  -2.251 -11.329  0.00  0.00    +0.010 A 
ATOM     27  C   UNL     1     -41.762  -3.528 -11.731  0.00  0.00    +0.024 A 
BRANCH   5   3
ATOM      1  O   UNL     1     -39.532  -5.068 -13.257  0.00  0.00    -0.270 OA
ATOM      2  C   UNL     1     -39.905  -5.897 -12.442  0.00  0.00    +0.248 C 
ATOM      3  N   UNL     1     -40.542  -5.580 -11.321  0.00  0.00    -0.281 N 
ATOM      4  H   UNL     1     -40.800  -6.379 -10.657  0.00  0.00    +0.155 HD
BRANCH   2  28
ATOM     28  C   UNL     1     -39.645  -7.360 -12.659  0.00  0.00    +0.037 A 
ATOM     29  C   UNL     1     -40.182  -8.270 -11.755  0.00  0.00    +0.013 A 
ATOM     30  C   UNL     1     -39.972  -9.633 -11.923  0.00  0.00    +0.001 A 
ATOM     31  C   UNL     1     -39.225 -10.088 -13.003  0.00  0.00    +0.000 A 
ATOM     32  C   UNL     1     -38.689  -9.180 -13.910  0.00  0.00    +0.001 A 
ATOM     33  C   UNL     1     -38.900  -7.816 -13.740  0.00  0.00    +0.013 A 
ENDBRANCH   2  28
ENDBRANCH   5   3
ENDBRANCH   9   8
BRANCH  11  12
ATOM     12  C   UNL     1     -44.725   2.068  -9.059  0.00  0.00    +0.096 C 
ATOM     13  C   UNL     1     -45.624   1.834 -10.268  0.00  0.00    +0.052 C 
ATOM     14  C   UNL     1     -46.941   1.249  -9.771  0.00  0.00    -0.029 C 
ATOM     15  C   UNL     1     -46.728   0.846  -8.318  0.00  0.00    -0.029 C 
ATOM     16  C   UNL     1     -45.477   1.568  -7.833  0.00  0.00    +0.052 C 
ENDBRANCH  11  12
BRANCH  21  22
ATOM     22  N   UNL     1     -39.045  -0.021  -9.304  0.00  0.00    -0.343 N 
ATOM     23  H   UNL     1     -38.005   0.175  -9.144  0.00  0.00    +0.144 HD
ATOM     24  H   UNL     1     -39.358  -0.975  -9.674  0.00  0.00    +0.144 HD
ENDBRANCH  21  22
TORSDOF 5
