REMARK  Name = 5ANI
REMARK  0 active torsions:
REMARK  status: ('A' for Active; 'I' for Inactive)
REMARK                            x       y       z     vdW  Elec       q    Type
REMARK                         _______ _______ _______ _____ _____    ______ ____
ROOT
ATOM      1  C   UNL     1       0.044  -5.422 -27.910  0.00  0.00    +0.122 A 
ATOM      2  N   UNL     1      -0.950  -4.939 -27.145  0.00  0.00    -0.341 N 
ATOM      3  H   UNL     1      -1.556  -5.517 -26.478  0.00  0.00    +0.167 HD
ATOM      4  C   UNL     1      -1.063  -3.619 -27.349  0.00  0.00    +0.199 A 
ATOM      5  N   UNL     1      -0.111  -3.278 -28.252  0.00  0.00    -0.217 NA
ATOM      6  C   UNL     1       0.528  -4.387 -28.616  0.00  0.00    +0.182 A 
ATOM      7  N   UNL     1       1.528  -4.585 -29.462  0.00  0.00    -0.215 NA
ATOM      8  C   UNL     1       2.115  -5.841 -29.673  0.00  0.00    +0.225 A 
ATOM      9  N   UNL     1       1.559  -6.916 -28.984  0.00  0.00    -0.222 NA
ATOM     10  C   UNL     1       0.555  -6.657 -28.126  0.00  0.00    +0.158 A 
ATOM     11 CL   UNL     1      -0.045  -8.005 -27.333  0.00  0.00    -0.060 Cl
ENDROOT
TORSDOF 0
