REMARK  Name = 5HNB
REMARK  6 active torsions:
REMARK  status: ('A' for Active; 'I' for Inactive)
REMARK    1  A    between atoms: C_1  and  O_15
REMARK    2  A    between atoms: C_5  and  C_17
REMARK    3  A    between atoms: C_9  and  O_20
REMARK    4  A    between atoms: C_10  and  C_23
REMARK    5  A    between atoms: C_11  and  C_23
REMARK    6  A    between atoms: C_25  and  C_26
REMARK                            x       y       z     vdW  Elec       q    Type
REMARK                         _______ _______ _______ _____ _____    ______ ____
ROOT
ATOM      7  C   UNL     1      -6.366  12.270 -11.975  0.00  0.00    +0.079 A 
ATOM      8  C   UNL     1      -6.981  11.662 -13.092  0.00  0.00    +0.131 A 
ATOM     11  C   UNL     1      -7.708  10.490 -12.933  0.00  0.00    +0.074 A 
ATOM     12  C   UNL     1      -7.847   9.904 -11.666  0.00  0.00    +0.070 A 
ATOM     13  N   UNL     1      -8.487   8.782 -11.215  0.00  0.00    -0.277 N 
ATOM     14  H   UNL     1      -9.047   8.100 -11.821  0.00  0.00    +0.189 HD
ATOM     15  N   UNL     1      -8.292   8.670  -9.835  0.00  0.00    -0.177 NA
ATOM     16  C   UNL     1      -7.568   9.659  -9.383  0.00  0.00    +0.075 A 
ATOM     25  C   UNL     1      -7.239  10.510 -10.533  0.00  0.00    +0.024 A 
ATOM     26  C   UNL     1      -6.512  11.693 -10.709  0.00  0.00    +0.028 A 
ENDROOT
BRANCH   7   6
ATOM      1  C   UNL     1      -2.059  13.095 -11.009  0.00  0.00    +0.133 C 
ATOM      4  C   UNL     1      -3.523  12.652 -10.916  0.00  0.00    +0.139 C 
ATOM      5  N   UNL     1      -4.322  13.652 -11.649  0.00  0.00    -0.295 N 
ATOM      6  C   UNL     1      -5.585  13.519 -12.132  0.00  0.00    +0.250 C 
ATOM     27  O   UNL     1      -6.091  14.454 -12.724  0.00  0.00    -0.270 OA
ATOM     28  C   UNL     1      -3.508  14.875 -11.769  0.00  0.00    +0.111 C 
ATOM     29  C   UNL     1      -2.204  14.637 -10.961  0.00  0.00    +0.052 C 
BRANCH   1   2
ATOM      2  O   UNL     1      -1.484  12.643 -12.235  0.00  0.00    -0.390 OA
ATOM      3  H   UNL     1      -2.094  12.937 -13.038  0.00  0.00    +0.210 HD
ENDBRANCH   1   2
ENDBRANCH   7   6
BRANCH   8   9
ATOM      9  O   UNL     1      -6.852  12.227 -14.318  0.00  0.00    -0.506 OA
ATOM     10  H   UNL     1      -7.253  13.198 -14.301  0.00  0.00    +0.292 HD
ENDBRANCH   8   9
BRANCH  16  17
ATOM     17  C   UNL     1      -7.196   9.838  -7.925  0.00  0.00    +0.092 C 
BRANCH  17  18
ATOM     18  C   UNL     1      -5.876  10.535  -7.700  0.00  0.00    -0.041 A 
ATOM     19  C   UNL     1      -4.689   9.931  -8.092  0.00  0.00    +0.004 A 
ATOM     20  C   UNL     1      -3.475  10.576  -7.880  0.00  0.00    +0.001 A 
ATOM     21  C   UNL     1      -3.446  11.826  -7.281  0.00  0.00    +0.003 A 
ATOM     22  C   UNL     1      -4.626  12.431  -6.898  0.00  0.00    -0.050 A 
ATOM     23  C   UNL     1      -4.572  13.788  -6.254  0.00  0.00    +0.044 C 
ATOM     24  C   UNL     1      -5.842  11.791  -7.101  0.00  0.00    +0.007 A 
ENDBRANCH  17  18
ENDBRANCH  16  17
TORSDOF 5
