REMARK  Name = F8B
REMARK  8 active torsions:
REMARK  status: ('A' for Active; 'I' for Inactive)
REMARK    1  A    between atoms: C1_1  and  C3_3
REMARK    2  A    between atoms: C7_4  and  N3_26
REMARK    3  A    between atoms: C10_7  and  O1_27
REMARK    4  A    between atoms: C13_10  and  O1_27
REMARK    5  A    between atoms: C16_13  and  O3_33
REMARK    6  A    between atoms: C6_19  and  C5_20
REMARK    7  A    between atoms: C5_20  and  N_21
REMARK    8  A    between atoms: C17_31  and  O2_32
REMARK                            x       y       z     vdW  Elec       q    Type
REMARK                         _______ _______ _______ _____ _____    ______ ____
ROOT
ATOM     12  C   UNL     1      33.405 100.275   8.629  0.00  0.00    +0.074 A 
ATOM     13  C   UNL     1      32.909  99.246   9.431  0.00  0.00    +0.020 A 
ATOM     14  C   UNL     1      33.680  98.124   9.688  0.00  0.00    +0.039 A 
ATOM     15  C   UNL     1      34.938  98.007   9.110  0.00  0.00    +0.147 A 
ATOM     31  C   UNL     1      35.435  99.022   8.303  0.00  0.00    +0.039 A 
ATOM     32  C   UNL     1      34.680 100.161   8.085  0.00  0.00    +0.020 A 
ENDROOT
BRANCH  12  11
ATOM      9  C   UNL     1      31.974 102.167   9.348  0.00  0.00    +0.271 C 
ATOM     10  O   UNL     1      31.716 101.748  10.475  0.00  0.00    -0.271 OA
ATOM     11  N   UNL     1      32.673 101.471   8.421  0.00  0.00    -0.177 NA
BRANCH   9   8
ATOM      8  C   UNL     1      31.543 103.556   8.907  0.00  0.00    +0.216 C 
BRANCH   8   6
ATOM      4  C   UNL     1      29.146 104.790  11.259  0.00  0.00    +0.101 A 
ATOM      5  C   UNL     1      30.439 104.461  10.993  0.00  0.00    +0.114 A 
ATOM      6  N   UNL     1      30.440 104.060   9.712  0.00  0.00    -0.221 N 
ATOM      7  N   UNL     1      29.212 104.150   9.183  0.00  0.00    -0.064 NA
ATOM     33  N   UNL     1      28.426 104.620  10.123  0.00  0.00    -0.133 NA
BRANCH   4   1
ATOM      1  C   UNL     1      28.480 105.328  12.516  0.00  0.00    +0.044 C 
ATOM      2  C   UNL     1      28.959 104.682  13.802  0.00  0.00    +0.006 C 
ATOM      3  C   UNL     1      28.618 106.832  12.527  0.00  0.00    +0.006 C 
ENDBRANCH   4   1
ENDBRANCH   8   6
ENDBRANCH   9   8
ENDBRANCH  12  11
BRANCH  15  16
ATOM     16  O   UNL     1      35.717  96.884   9.399  0.00  0.00    -0.436 OA
BRANCH  16  17
ATOM     17  C   UNL     1      36.866  96.941  10.145  0.00  0.00    +0.233 A 
ATOM     18  C   UNL     1      37.498  95.696  10.489  0.00  0.00    +0.074 A 
ATOM     19  C   UNL     1      38.722  95.815  11.191  0.00  0.00    +0.091 A 
ATOM     20  C   UNL     1      39.407  94.642  11.589  0.00  0.00    +0.059 A 
ATOM     21  C   UNL     1      38.876  93.405  11.335  0.00  0.00    +0.174 A 
ATOM     24  C   UNL     1      37.624  93.286  10.679  0.00  0.00    +0.173 A 
ATOM     27  N   UNL     1      39.307  97.029  11.451  0.00  0.00    -0.224 NA
ATOM     28  C   UNL     1      38.607  98.087  11.049  0.00  0.00    +0.202 A 
ATOM     29  C   UNL     1      36.959  94.402  10.254  0.00  0.00    +0.046 A 
ATOM     30  N   UNL     1      37.422  98.115  10.419  0.00  0.00    -0.189 NA
BRANCH  21  22
ATOM     22  O   UNL     1      39.457  92.211  11.676  0.00  0.00    -0.468 OA
ATOM     23  C   UNL     1      40.766  92.238  12.246  0.00  0.00    +0.253 C 
ENDBRANCH  21  22
BRANCH  24  25
ATOM     25  O   UNL     1      37.192  91.998  10.503  0.00  0.00    -0.468 OA
ATOM     26  C   UNL     1      35.873  91.795   9.991  0.00  0.00    +0.253 C 
ENDBRANCH  24  25
ENDBRANCH  16  17
ENDBRANCH  15  16
TORSDOF 8
