REMARK  Name = 3gvu_ligand
REMARK  8 active torsions:
REMARK  status: ('A' for Active; 'I' for Inactive)
REMARK    1  A    between atoms: C5_3  and  C7_7
REMARK    2  A    between atoms: N13_13  and  C14_14
REMARK    3  A    between atoms: C19_15  and  C20_37
REMARK    4  A    between atoms: C16_18  and  N21_20
REMARK    5  A    between atoms: C22_21  and  C23_22
REMARK    6  A    between atoms: C27_25  and  C46_28
REMARK    7  A    between atoms: C46_28  and  N48_29
REMARK    8  A    between atoms: N51_32  and  C54_33
REMARK                            x       y       z     vdW  Elec       q    Type
REMARK                         _______ _______ _______ _____ _____    ______ ____
ROOT
ATOM     11  C   UNL     1      13.172   8.218  18.245  0.00  0.00    +0.055 A 
ATOM     12  C   UNL     1      14.411   8.726  18.616  0.00  0.00    +0.015 A 
ATOM     13  C   UNL     1      15.337   9.192  17.680  0.00  0.00    +0.049 A 
ATOM     34  C   UNL     1      14.998   9.095  16.339  0.00  0.00    -0.019 A 
ATOM     35  C   UNL     1      13.785   8.573  15.964  0.00  0.00    -0.033 A 
ATOM     36  C   UNL     1      12.864   8.126  16.901  0.00  0.00    -0.036 A 
ATOM     37  C   UNL     1      11.517   7.562  16.433  0.00  0.00    +0.062 C 
ENDROOT
BRANCH  11   9
ATOM      6  C   UNL     1       9.352   8.390  21.009  0.00  0.00    +0.062 A 
ATOM      7  N   UNL     1      10.426   7.759  20.480  0.00  0.00    -0.246 NA
ATOM      8  C   UNL     1      11.291   8.403  19.671  0.00  0.00    +0.209 A 
ATOM      9  N   UNL     1      12.337   7.743  19.190  0.00  0.00    -0.248 N 
ATOM     10  H   UNL     1      12.524   6.802  19.565  0.00  0.00    +0.216 HD
ATOM     38  N   UNL     1      11.082   9.676  19.327  0.00  0.00    -0.252 NA
ATOM     39  C   UNL     1      10.043  10.333  19.805  0.00  0.00    +0.104 A 
ATOM     40  C   UNL     1       9.136   9.725  20.671  0.00  0.00    +0.052 A 
BRANCH   6   5
ATOM      1  C   UNL     1       6.574   7.654  23.339  0.00  0.00    +0.042 A 
ATOM      2  C   UNL     1       6.808   6.284  23.518  0.00  0.00    +0.099 A 
ATOM      3  N   UNL     1       7.815   5.680  22.909  0.00  0.00    -0.292 NA
ATOM      4  C   UNL     1       8.633   6.351  22.102  0.00  0.00    +0.111 A 
ATOM      5  C   UNL     1       8.474   7.718  21.866  0.00  0.00    +0.032 A 
ATOM     41  C   UNL     1       7.413   8.386  22.500  0.00  0.00    +0.048 A 
ENDBRANCH   6   5
ENDBRANCH  11   9
BRANCH  13  14
ATOM     14  N   UNL     1      16.571   9.663  17.992  0.00  0.00    -0.240 N 
ATOM     15  H   UNL     1      17.165   9.906  17.226  0.00  0.00    +0.223 HD
ATOM     16  C   UNL     1      17.077   9.836  19.227  0.00  0.00    +0.226 C 
ATOM     17  O   UNL     1      16.448   9.748  20.287  0.00  0.00    -0.377 OA
BRANCH  16  18
ATOM     18  C   UNL     1      18.564  10.223  19.289  0.00  0.00    +0.049 A 
ATOM     19  C   UNL     1      19.247   9.961  20.456  0.00  0.00    +0.017 A 
ATOM     20  C   UNL     1      20.590  10.284  20.579  0.00  0.00    +0.008 A 
ATOM     21  C   UNL     1      21.281  10.887  19.557  0.00  0.00    +0.006 A 
ATOM     32  C   UNL     1      20.598  11.153  18.375  0.00  0.00    +0.008 A 
ATOM     33  C   UNL     1      19.247  10.823  18.238  0.00  0.00    +0.017 A 
BRANCH  21  22
ATOM     22  C   UNL     1      22.785  11.255  19.771  0.00  0.00    +0.203 C 
BRANCH  22  23
ATOM     23  N   UNL     1      23.082  12.619  19.284  0.00  0.00    +0.255 N 
ATOM     24  H   UNL     1      22.855  12.691  18.305  0.00  0.00    +0.205 HD
ATOM     25  C   UNL     1      24.487  12.894  19.459  0.00  0.00    +0.185 C 
ATOM     26  C   UNL     1      24.718  14.303  18.843  0.00  0.00    +0.183 C 
ATOM     27  N   UNL     1      23.920  15.334  19.584  0.00  0.00    +0.240 N 
ATOM     28  H   UNL     1      24.160  15.441  20.557  0.00  0.00    +0.203 HD
ATOM     29  C   UNL     1      24.284  16.496  18.778  0.00  0.00    +0.191 C 
ATOM     30  C   UNL     1      22.513  14.894  19.409  0.00  0.00    +0.183 C 
ATOM     31  C   UNL     1      22.263  13.509  20.022  0.00  0.00    +0.185 C 
ENDBRANCH  22  23
ENDBRANCH  21  22
ENDBRANCH  16  18
ENDBRANCH  13  14
TORSDOF 6
