REMARK  Name = 4bcf_ligand
REMARK  7 active torsions:
REMARK  status: ('A' for Active; 'I' for Inactive)
REMARK    1  A    between atoms: C01_1  and  N02_2
REMARK    2  A    between atoms: C05_5  and  C06_6
REMARK    3  A    between atoms: C07_7  and  C08_8
REMARK    4  A    between atoms: N11_11  and  C12_12
REMARK    5  A    between atoms: C16_16  and  N17_17
REMARK    6  A    between atoms: C22_22  and  C23_23
REMARK    7  A    between atoms: C30_30  and  C31_31
REMARK                            x       y       z     vdW  Elec       q    Type
REMARK                         _______ _______ _______ _____ _____    ______ ____
ROOT
ATOM      7  C   UNL     1      53.438 -15.283 -12.335  0.00  0.00    +0.069 A 
ATOM      8  C   UNL     1      53.277 -13.887 -12.395  0.00  0.00    +0.120 A 
ATOM     11  C   UNL     1      54.432 -13.072 -12.391  0.00  0.00    +0.132 A 
ATOM     12  N   UNL     1      55.707 -13.629 -12.337  0.00  0.00    -0.253 NA
ATOM     13  C   UNL     1      55.830 -14.983 -12.279  0.00  0.00    +0.203 A 
ATOM     14  N   UNL     1      57.178 -15.532 -12.222  0.00  0.00    -0.243 N 
ATOM     15  H   UNL     1      57.962 -14.907 -12.457  0.00  0.00    +0.220 HD
ATOM     32  N   UNL     1      54.717 -15.811 -12.270  0.00  0.00    -0.258 NA
ENDROOT
BRANCH   7   6
ATOM      1  C   UNL     1      49.066 -19.324 -10.438  0.00  0.00    +0.175 C 
ATOM      2  N   UNL     1      50.174 -19.374 -11.364  0.00  0.00    -0.280 N 
ATOM      3  H   UNL     1      50.524 -20.290 -11.679  0.00  0.00    +0.195 HD
ATOM      4  C   UNL     1      50.787 -18.204 -11.846  0.00  0.00    +0.193 A 
ATOM      5  S   UNL     1      52.296 -17.553 -11.370  0.00  0.00    +0.021 S 
ATOM      6  C   UNL     1      52.345 -16.179 -12.341  0.00  0.00    +0.069 A 
ATOM     33  C   UNL     1      51.163 -16.311 -13.098  0.00  0.00    +0.011 A 
ATOM     34  C   UNL     1      50.704 -15.359 -14.197  0.00  0.00    +0.107 C 
ATOM     35  N   UNL     1      50.366 -17.368 -12.795  0.00  0.00    -0.286 NA
ENDBRANCH   7   6
BRANCH  14  16
ATOM     16  C   UNL     1      57.489 -16.907 -11.855  0.00  0.00    +0.055 A 
ATOM     17  C   UNL     1      56.528 -17.972 -11.816  0.00  0.00    +0.022 A 
ATOM     18  C   UNL     1      56.949 -19.259 -11.445  0.00  0.00    +0.030 A 
ATOM     29  C   UNL     1      58.294 -19.468 -11.151  0.00  0.00    -0.013 A 
ATOM     30  C   UNL     1      59.255 -18.412 -11.191  0.00  0.00    -0.027 A 
ATOM     31  C   UNL     1      58.844 -17.135 -11.546  0.00  0.00    -0.008 A 
BRANCH  18  19
ATOM     19  N   UNL     1      56.018 -20.402 -11.366  0.00  0.00    -0.309 N 
ATOM     20  C   UNL     1      54.624 -20.591 -11.686  0.00  0.00    +0.154 C 
ATOM     21  C   UNL     1      53.996 -21.858 -11.138  0.00  0.00    +0.162 C 
ATOM     22  N   UNL     1      54.674 -22.609 -10.082  0.00  0.00    -0.272 N 
ATOM     23  C   UNL     1      53.919 -23.713  -9.431  0.00  0.00    +0.175 C 
ATOM     24  O   UNL     1      54.442 -24.375  -8.532  0.00  0.00    -0.397 OA
ATOM     25  C   UNL     1      52.494 -24.103  -9.794  0.00  0.00    +0.166 C 
ATOM     26  C   UNL     1      56.004 -22.421  -9.558  0.00  0.00    +0.140 C 
ATOM     27  C   UNL     1      57.117 -22.416 -10.555  0.00  0.00    +0.048 C 
ATOM     28  C   UNL     1      56.830 -21.531 -11.714  0.00  0.00    +0.131 C 
ENDBRANCH  18  19
ENDBRANCH  14  16
BRANCH   8   9
ATOM      9  C   UNL     1      51.935 -13.277 -12.405  0.00  0.00    +0.089 C 
ATOM     10  N   UNL     1      50.874 -12.796 -12.441  0.00  0.00    -0.343 NA
ENDBRANCH   8   9
TORSDOF 4
