REMARK  Name = 2c68_ligand
REMARK  4 active torsions:
REMARK  status: ('A' for Active; 'I' for Inactive)
REMARK    1  A    between atoms: C3_4  and  C7_8
REMARK    2  A    between atoms: C9_10  and  N4_17
REMARK    3  A    between atoms: N4_17  and  C13_18
REMARK    4  A    between atoms: C13_18  and  C14_19
REMARK                            x       y       z     vdW  Elec       q    Type
REMARK                         _______ _______ _______ _____ _____    ______ ____
ROOT
ATOM      7  C   UNL     1      12.962  -8.515  10.551  0.00  0.00    +0.029 A 
ATOM      8  N   UNL     1      13.680  -8.601  11.685  0.00  0.00    -0.294 NA
ATOM      9  C   UNL     1      13.239  -9.403  12.703  0.00  0.00    +0.145 A 
ATOM     10  C   UNL     1      13.801  -9.637  13.922  0.00  0.00    -0.025 A 
ATOM     11  C   UNL     1      12.955 -10.524  14.567  0.00  0.00    +0.040 A 
ATOM     12  N   UNL     1      11.918 -10.803  13.711  0.00  0.00    -0.215 NA
ATOM     13  N   UNL     1      12.130 -10.131  12.592  0.00  0.00    -0.114 N 
ATOM     14  C   UNL     1      11.351 -10.049  11.492  0.00  0.00    +0.222 A 
ATOM     24  C   UNL     1      11.768  -9.244  10.428  0.00  0.00    +0.064 A 
ENDROOT
BRANCH   7   6
ATOM      1 BR   UNL     1      14.362  -8.230   5.387  0.00  0.00    -0.049 Br
ATOM      2  C   UNL     1      14.073  -7.441   7.090  0.00  0.00    +0.018 A 
ATOM      3  C   UNL     1      14.345  -6.070   7.297  0.00  0.00    +0.019 A 
ATOM      4  C   UNL     1      14.159  -5.495   8.572  0.00  0.00    +0.009 A 
ATOM      5  C   UNL     1      13.691  -6.287   9.637  0.00  0.00    +0.024 A 
ATOM      6  C   UNL     1      13.435  -7.658   9.429  0.00  0.00    +0.004 A 
ATOM     25  C   UNL     1      13.634  -8.229   8.149  0.00  0.00    +0.031 A 
ENDBRANCH   7   6
BRANCH  14  15
ATOM     15  N   UNL     1      10.151 -10.806  11.404  0.00  0.00    -0.257 N 
ATOM     16  H   UNL     1      10.072 -11.700  11.909  0.00  0.00    +0.197 HD
BRANCH  15  17
ATOM     17  C   UNL     1       9.025 -10.321  10.599  0.00  0.00    +0.221 C 
BRANCH  17  18
ATOM     18  C   UNL     1       8.778 -11.293   9.456  0.00  0.00    +0.000 A 
ATOM     19  C   UNL     1       8.339 -10.829   8.223  0.00  0.00    +0.035 A 
ATOM     20  C   UNL     1       8.138 -11.733   7.180  0.00  0.00    +0.083 A 
ATOM     21  N   UNL     1       8.378 -13.075   7.367  0.00  0.00    -0.307 NA
ATOM     22  C   UNL     1       8.801 -13.538   8.575  0.00  0.00    +0.083 A 
ATOM     23  C   UNL     1       9.001 -12.653   9.639  0.00  0.00    +0.035 A 
ENDBRANCH  17  18
ENDBRANCH  15  17
ENDBRANCH  14  15
TORSDOF 4
