REMARK  Name = R68
REMARK  7 active torsions:
REMARK  status: ('A' for Active; 'I' for Inactive)
REMARK    1  A    between atoms: C21_2  and  C14_3
REMARK    2  A    between atoms: N23_9  and  C31_10
REMARK    3  A    between atoms: C37_16  and  N41_17
REMARK    4  A    between atoms: C42_18  and  C51_20
REMARK    5  A    between atoms: C54_25  and  C61_26
REMARK    6  A    between atoms: C61_26  and  C71_28
REMARK    7  A    between atoms: C75_33  and  C91_36
REMARK                            x       y       z     vdW  Elec       q    Type
REMARK                         _______ _______ _______ _____ _____    ______ ____
ROOT
ATOM     15  C   UNL     1       0.590  37.372  42.931  0.00  0.00    +0.055 A 
ATOM     16  C   UNL     1      -0.177  37.040  44.072  0.00  0.00    +0.005 A 
ATOM     17  C   UNL     1      -0.986  35.911  44.080  0.00  0.00    +0.003 A 
ATOM     18  C   UNL     1      -1.050  35.077  42.946  0.00  0.00    +0.039 A 
ATOM     37  C   UNL     1      -0.297  35.399  41.795  0.00  0.00    +0.003 A 
ATOM     38  C   UNL     1       0.518  36.531  41.807  0.00  0.00    +0.005 A 
ENDROOT
BRANCH  15  13
ATOM     12  N   UNL     1       2.568  38.643  42.119  0.00  0.00    -0.202 NA
ATOM     13  C   UNL     1       1.446  38.572  42.945  0.00  0.00    +0.265 C 
ATOM     14  O   UNL     1       1.245  39.534  43.682  0.00  0.00    -0.268 OA
BRANCH  12  11
ATOM     10  C   UNL     1       4.627  39.618  41.287  0.00  0.00    +0.133 C 
ATOM     11  C   UNL     1       3.239  39.917  41.869  0.00  0.00    +0.117 C 
ATOM     39  C   UNL     1       2.341  40.878  41.065  0.00  0.00    +0.025 C 
ATOM     40  C   UNL     1       1.809  40.248  39.759  0.00  0.00    +0.021 C 
ATOM     41  C   UNL     1       2.831  40.314  38.620  0.00  0.00    +0.089 C 
ATOM     42  N   UNL     1       4.068  39.531  38.837  0.00  0.00    -0.216 NA
ATOM     43  C   UNL     1       4.933  40.158  39.857  0.00  0.00    +0.112 C 
BRANCH  10   9
ATOM      1  O   UNL     1       6.599  38.198  42.464  0.00  0.00    -0.268 OA
ATOM      2  C   UNL     1       6.670  39.411  42.657  0.00  0.00    +0.265 C 
ATOM      9  N   UNL     1       5.589  40.164  42.244  0.00  0.00    -0.200 NA
BRANCH   2   3
ATOM      3  C   UNL     1       7.835  40.055  43.289  0.00  0.00    +0.058 A 
ATOM      4  C   UNL     1       7.851  41.401  43.683  0.00  0.00    +0.025 A 
ATOM      5  C   UNL     1       8.975  41.946  44.284  0.00  0.00    +0.099 A 
ATOM      6  N   UNL     1      10.061  41.214  44.491  0.00  0.00    -0.242 NA
ATOM      7  C   UNL     1      10.075  39.941  44.106  0.00  0.00    +0.099 A 
ATOM      8  C   UNL     1       8.995  39.324  43.512  0.00  0.00    +0.025 A 
ENDBRANCH   2   3
ENDBRANCH  10   9
ENDBRANCH  12  11
ENDBRANCH  15  13
BRANCH  18  19
ATOM     19  C   UNL     1      -1.910  33.892  42.957  0.00  0.00    +0.201 C 
ATOM     20  O   UNL     1      -2.777  33.853  43.816  0.00  0.00    -0.286 OA
BRANCH  19  21
ATOM     21  C   UNL     1      -1.838  32.791  41.999  0.00  0.00    +0.105 A 
ATOM     22  C   UNL     1      -0.950  31.693  42.077  0.00  0.00    +0.201 A 
ATOM     23  O   UNL     1      -0.043  31.610  43.092  0.00  0.00    -0.286 OA
ATOM     24  C   UNL     1      -0.966  30.671  41.116  0.00  0.00    +0.042 A 
ATOM     25  C   UNL     1      -1.874  30.720  40.045  0.00  0.00    +0.003 A 
ATOM     26  C   UNL     1      -2.774  31.790  39.936  0.00  0.00    +0.021 A 
ATOM     35  C   UNL     1      -2.721  32.789  40.919  0.00  0.00    +0.144 A 
ATOM     36  F   UNL     1      -3.566  33.809  40.857  0.00  0.00    -0.204 F 
BRANCH  26  27
ATOM     27  C   UNL     1      -3.778  31.803  38.806  0.00  0.00    +0.097 C 
ATOM     28  N   UNL     1      -5.107  32.326  39.281  0.00  0.00    -0.215 NA
ATOM     29  C   UNL     1      -6.218  32.288  38.272  0.00  0.00    +0.089 C 
ATOM     30  C   UNL     1      -5.812  33.010  36.976  0.00  0.00    +0.019 C 
ATOM     31  C   UNL     1      -4.497  32.348  36.462  0.00  0.00    +0.003 C 
ATOM     32  C   UNL     1      -3.299  32.429  37.457  0.00  0.00    +0.019 C 
ATOM     33  C   UNL     1      -2.854  33.886  37.632  0.00  0.00    +0.002 C 
ATOM     34  C   UNL     1      -2.130  31.633  36.856  0.00  0.00    +0.002 C 
ENDBRANCH  26  27
ENDBRANCH  19  21
ENDBRANCH  18  19
TORSDOF 7
