REMARK  Name = 2vwz_ligand
REMARK  5 active torsions:
REMARK  status: ('A' for Active; 'I' for Inactive)
REMARK    1  A    between atoms: N2_1  and  C6_28
REMARK    2  A    between atoms: N4_7  and  C11_8
REMARK    3  A    between atoms: C1_19  and  S1_20
REMARK    4  A    between atoms: S1_20  and  N1_23
REMARK    5  A    between atoms: N1_23  and  C2_24
REMARK                            x       y       z     vdW  Elec       q    Type
REMARK                         _______ _______ _______ _____ _____    ______ ____
ROOT
ATOM      1  N   UNL     1      13.644   7.454  11.617  0.00  0.00    -0.248 N 
ATOM      2  H   UNL     1      14.666   7.482  11.738  0.00  0.00    +0.217 HD
ATOM     15  C   UNL     1      13.009   6.249  11.895  0.00  0.00    +0.194 A 
ATOM     16  N   UNL     1      11.683   6.127  11.828  0.00  0.00    -0.235 NA
ATOM     17  C   UNL     1      11.192   4.924  12.071  0.00  0.00    +0.132 A 
ATOM     18  N   UNL     1       9.794   4.793  12.002  0.00  0.00    -0.261 N 
ATOM     19  H   UNL     1       9.232   5.610  11.725  0.00  0.00    +0.213 HD
ATOM     30  C   UNL     1      12.016   3.861  12.404  0.00  0.00    +0.056 A 
ATOM     31  C   UNL     1      13.382   4.062  12.454  0.00  0.00    +0.085 A 
ATOM     32  N   UNL     1      13.896   5.280  12.185  0.00  0.00    -0.269 NA
ENDROOT
BRANCH  18  20
ATOM     20  C   UNL     1       9.130   3.577  12.300  0.00  0.00    +0.100 A 
ATOM     21  C   UNL     1       8.503   2.803  11.330  0.00  0.00    +0.043 A 
ATOM     22 CL   UNL     1       8.559   3.352   9.657  0.00  0.00    -0.092 Cl
ATOM     23  C   UNL     1       7.852   1.609  11.682  0.00  0.00    -0.029 A 
ATOM     24  C   UNL     1       7.779   1.156  13.003  0.00  0.00    -0.009 A 
ATOM     25  C   UNL     1       8.397   1.948  13.937  0.00  0.00    +0.115 A 
ATOM     26  O   UNL     1       8.461   1.700  15.285  0.00  0.00    -0.294 OA
ATOM     27  C   UNL     1       9.408   2.706  15.711  0.00  0.00    +0.378 C 
ATOM     28  O   UNL     1       9.626   3.726  14.694  0.00  0.00    -0.296 OA
ATOM     29  C   UNL     1       9.056   3.101  13.597  0.00  0.00    +0.147 A 
ENDBRANCH  18  20
BRANCH   1   3
ATOM      3  C   UNL     1      13.019   8.639  11.186  0.00  0.00    +0.049 A 
ATOM      4  C   UNL     1      11.665   8.759  10.931  0.00  0.00    +0.015 A 
ATOM      5  C   UNL     1      11.183   9.994  10.502  0.00  0.00    +0.052 A 
ATOM      6  C   UNL     1      12.032  11.076  10.362  0.00  0.00    -0.018 A 
ATOM      7  C   UNL     1      13.379  10.938  10.619  0.00  0.00    -0.032 A 
ATOM     14  C   UNL     1      13.879   9.727  11.037  0.00  0.00    -0.016 A 
BRANCH   5   8
ATOM      8  N   UNL     1       9.805  10.268  10.203  0.00  0.00    -0.195 N 
ATOM      9  H   UNL     1       9.470  11.207  10.285  0.00  0.00    +0.216 HD
BRANCH   8  10
ATOM     10  S   UNL     1       8.714   9.038   9.710  0.00  0.00    +0.057 S 
ATOM     11  O   UNL     1       7.506   9.772   9.345  0.00  0.00    -0.150 OA
ATOM     12  O   UNL     1       8.609   7.862  10.564  0.00  0.00    -0.150 OA
ATOM     13  C   UNL     1       9.428   8.437   8.198  0.00  0.00    +0.225 C 
ENDBRANCH   8  10
ENDBRANCH   5   8
ENDBRANCH   1   3
TORSDOF 4
