REMARK  Name = 5BVK
REMARK  3 active torsions:
REMARK  status: ('A' for Active; 'I' for Inactive)
REMARK    1  A    between atoms: C_5  and  N_13
REMARK    2  A    between atoms: C_6  and  C_7
REMARK    3  A    between atoms: C_6  and  N_16
REMARK                            x       y       z     vdW  Elec       q    Type
REMARK                         _______ _______ _______ _____ _____    ______ ____
ROOT
ATOM      4  N   UNL     1      26.366  31.535  36.436  0.00  0.00    -0.268 N 
ATOM      5  H   UNL     1      27.028  31.737  36.973  0.00  0.00    +0.156 HD
ATOM      6  C   UNL     1      25.191  32.226  36.635  0.00  0.00    +0.304 C 
ATOM      7  N   UNL     1      25.167  32.961  37.769  0.00  0.00    -0.295 N 
ATOM      8  H   UNL     1      25.885  33.016  38.247  0.00  0.00    +0.151 HD
ATOM     16  O   UNL     1      24.244  32.179  35.848  0.00  0.00    -0.253 OA
ENDROOT
BRANCH   4   3
ATOM      1  C   UNL     1      27.613  29.584  35.771  0.00  0.00    +0.062 A 
ATOM      2 CL   UNL     1      28.363  29.552  37.336  0.00  0.00    -0.082 Cl
ATOM      3  C   UNL     1      26.680  30.568  35.449  0.00  0.00    +0.053 A 
ATOM     17  C   UNL     1      26.105  30.554  34.182  0.00  0.00    +0.025 A 
ATOM     18  C   UNL     1      26.457  29.580  33.263  0.00  0.00    +0.002 A 
ATOM     19  C   UNL     1      27.382  28.613  33.597  0.00  0.00    +0.002 A 
ATOM     20  C   UNL     1      27.963  28.612  34.851  0.00  0.00    +0.022 A 
ENDBRANCH   4   3
BRANCH   7   9
ATOM      9  C   UNL     1      23.973  33.633  38.262  0.00  0.00    +0.142 C 
BRANCH   9  10
ATOM     10  C   UNL     1      24.041  35.137  38.154  0.00  0.00    -0.012 A 
ATOM     11  C   UNL     1      22.891  35.906  38.241  0.00  0.00    +0.115 A 
ATOM     12  N   UNL     1      22.895  37.242  38.152  0.00  0.00    -0.263 NA
ATOM     13  C   UNL     1      24.068  37.856  37.969  0.00  0.00    +0.111 A 
ATOM     14  C   UNL     1      25.252  37.166  37.872  0.00  0.00    +0.020 A 
ATOM     15  C   UNL     1      25.247  35.794  37.964  0.00  0.00    +0.008 A 
ENDBRANCH   9  10
ENDBRANCH   7   9
TORSDOF 3
