REMARK  Name = 2R3Q
REMARK  6 active torsions:
REMARK  status: ('A' for Active; 'I' for Inactive)
REMARK    1  A    between atoms: C_7  and  C_11
REMARK    2  A    between atoms: C_9  and  N_10
REMARK    3  A    between atoms: N_10  and  C_12
REMARK    4  A    between atoms: C_12  and  C_13
REMARK    5  A    between atoms: N_15  and  O_26
REMARK    6  A    between atoms: C_19  and  C_25
REMARK                            x       y       z     vdW  Elec       q    Type
REMARK                         _______ _______ _______ _____ _____    ______ ____
ROOT
ATOM      1  C   UNL     1      -0.237  31.000   8.077  0.00  0.00    +0.079 A 
ATOM      2 BR   UNL     1      -1.706  31.780   8.943  0.00  0.00    -0.045 Br
ATOM      3  C   UNL     1       0.692  31.656   7.230  0.00  0.00    +0.121 A 
ATOM      4  N   UNL     1       1.631  30.807   6.842  0.00  0.00    -0.296 N 
ATOM      5  H   UNL     1       2.456  31.003   6.189  0.00  0.00    +0.187 HD
ATOM      6  N   UNL     1       1.318  29.620   7.458  0.00  0.00    -0.223 N 
ATOM      7  C   UNL     1       2.111  28.535   7.497  0.00  0.00    +0.119 C 
ATOM     19  C   UNL     1       1.641  27.472   8.220  0.00  0.00    +0.054 C 
ATOM     20  C   UNL     1       0.400  27.546   8.876  0.00  0.00    +0.143 C 
ATOM     28  N   UNL     1      -0.312  28.645   8.912  0.00  0.00    -0.246 NA
ATOM     29  C   UNL     1       0.202  29.699   8.184  0.00  0.00    +0.166 A 
ENDROOT
BRANCH  20  21
ATOM     21  C   UNL     1      -0.080  26.384   9.618  0.00  0.00    -0.010 A 
ATOM     22  C   UNL     1      -0.232  25.172   8.929  0.00  0.00    +0.007 A 
ATOM     23  C   UNL     1      -0.687  24.034   9.605  0.00  0.00    +0.000 A 
ATOM     24  C   UNL     1      -0.945  24.110  10.972  0.00  0.00    +0.000 A 
ATOM     25  C   UNL     1      -0.825  25.296  11.659  0.00  0.00    +0.003 A 
ATOM     26  C   UNL     1      -0.375  26.459  11.001  0.00  0.00    -0.045 A 
ATOM     27  C   UNL     1      -0.243  27.746  11.790  0.00  0.00    +0.044 C 
ENDBRANCH  20  21
BRANCH   7   8
ATOM      8  N   UNL     1       3.319  28.634   6.849  0.00  0.00    -0.325 N 
ATOM      9  H   UNL     1       3.470  29.389   6.106  0.00  0.00    +0.148 HD
BRANCH   8  10
ATOM     10  C   UNL     1       4.427  27.678   7.188  0.00  0.00    +0.136 C 
BRANCH  10  11
ATOM     11  C   UNL     1       4.598  26.655   6.064  0.00  0.00    -0.030 C 
ATOM     12  C   UNL     1       4.721  25.254   6.368  0.00  0.00    +0.062 C 
ATOM     13  C   UNL     1       4.855  24.286   5.331  0.00  0.00    -0.002 C 
ATOM     14  C   UNL     1       4.881  24.683   4.016  0.00  0.00    +0.113 C 
ATOM     15  N   UNL     1       4.770  26.087   3.638  0.00  0.00    -0.238 N 
ATOM     18  C   UNL     1       4.633  27.032   4.747  0.00  0.00    +0.117 C 
BRANCH  15  16
ATOM     16  O   UNL     1       4.733  26.483   2.376  0.00  0.00    -0.283 OA
ATOM     17  H   UNL     1       4.834  25.781   1.602  0.00  0.00    +0.245 HD
ENDBRANCH  15  16
ENDBRANCH  10  11
ENDBRANCH   8  10
ENDBRANCH   7   8
TORSDOF 5
