REMARK  Name = 3my5_ligand
REMARK  5 active torsions:
REMARK  status: ('A' for Active; 'I' for Inactive)
REMARK    1  A    between atoms: N1_11  and  C1'_12
REMARK    2  A    between atoms: C4'_14  and  C5'_15
REMARK    3  A    between atoms: C5'_15  and  O5'_16
REMARK    4  A    between atoms: C3'_17  and  O3'_18
REMARK    5  A    between atoms: C2'_19  and  O2'_20
REMARK                            x       y       z     vdW  Elec       q    Type
REMARK                         _______ _______ _______ _____ _____    ______ ____
ROOT
ATOM      3  C1* UNL     1      -3.947  21.511 -22.216  0.00  0.00    +0.297 C 
ATOM      4  C2* UNL     1      -4.203  21.647 -20.721  0.00  0.00    +0.206 C 
ATOM      7  C3* UNL     1      -3.261  20.578 -20.176  0.00  0.00    +0.179 C 
ATOM     10  C4* UNL     1      -3.359  19.478 -21.240  0.00  0.00    +0.178 C 
ATOM     14  O4* UNL     1      -3.893  20.121 -22.440  0.00  0.00    -0.337 OA
ENDROOT
BRANCH   3   2
ATOM      1  C   UNL     1      -6.329  21.907 -23.076  0.00  0.00    +0.090 A 
ATOM      2  N   UNL     1      -5.005  22.121 -23.082  0.00  0.00    -0.207 N 
ATOM     15  C   UNL     1      -4.752  23.073 -23.997  0.00  0.00    +0.244 A 
ATOM     16  N   UNL     1      -5.900  23.462 -24.589  0.00  0.00    -0.306 NA
ATOM     17  C   UNL     1      -6.903  22.750 -24.035  0.00  0.00    +0.035 A 
ATOM     18  C   UNL     1      -8.275  22.750 -24.271  0.00  0.00    +0.010 A 
ATOM     19  C   UNL     1      -9.058  21.886 -23.518  0.00  0.00    +0.040 A 
ATOM     20 CL   UNL     1     -10.836  21.840 -23.746  0.00  0.00    -0.080 Cl
ATOM     21  C   UNL     1      -8.489  21.050 -22.567  0.00  0.00    +0.042 A 
ATOM     22 CL   UNL     1      -9.541  19.953 -21.627  0.00  0.00    -0.078 Cl
ATOM     23  C   UNL     1      -7.123  21.049 -22.334  0.00  0.00    +0.031 A 
ENDBRANCH   3   2
BRANCH   4   5
ATOM      5  O2* UNL     1      -3.950  22.954 -20.253  0.00  0.00    -0.384 OA
ATOM      6  H2* UNL     1      -3.070  23.213 -20.500  0.00  0.00    +0.210 HD
ENDBRANCH   4   5
BRANCH   7   8
ATOM      8  O3* UNL     1      -1.930  21.089 -20.144  0.00  0.00    -0.386 OA
ATOM      9  H3* UNL     1      -1.869  21.770 -19.485  0.00  0.00    +0.210 HD
ENDBRANCH   7   8
BRANCH  10  11
ATOM     11  C5* UNL     1      -4.228  18.303 -20.866  0.00  0.00    +0.190 C 
BRANCH  11  12
ATOM     12  O5* UNL     1      -3.525  17.368 -20.051  0.00  0.00    -0.392 OA
ATOM     13  H5* UNL     1      -4.100  16.643 -19.835  0.00  0.00    +0.209 HD
ENDBRANCH  11  12
ENDBRANCH  10  11
TORSDOF 5
