REMARK  Name = 4bco_ligand
REMARK  7 active torsions:
REMARK  status: ('A' for Active; 'I' for Inactive)
REMARK    1  A    between atoms: C01_1  and  N02_2
REMARK    2  A    between atoms: C05_5  and  C06_6
REMARK    3  A    between atoms: C07_7  and  C08_8
REMARK    4  A    between atoms: N11_11  and  C12_12
REMARK    5  A    between atoms: C16_16  and  N17_17
REMARK    6  A    between atoms: C22_22  and  C23_23
REMARK    7  A    between atoms: C30_30  and  C31_31
REMARK                            x       y       z     vdW  Elec       q    Type
REMARK                         _______ _______ _______ _____ _____    ______ ____
ROOT
ATOM      7  C   UNL     1      -8.072  21.429 -22.608  0.00  0.00    +0.069 A 
ATOM      8  C   UNL     1      -9.472  21.334 -22.578  0.00  0.00    +0.120 A 
ATOM     11  C   UNL     1     -10.238  22.053 -23.497  0.00  0.00    +0.132 A 
ATOM     12  N   UNL     1      -9.607  22.866 -24.400  0.00  0.00    -0.253 NA
ATOM     13  C   UNL     1      -8.269  22.972 -24.397  0.00  0.00    +0.203 A 
ATOM     14  N   UNL     1      -7.626  23.851 -25.373  0.00  0.00    -0.243 N 
ATOM     15  H   UNL     1      -8.074  23.990 -26.290  0.00  0.00    +0.220 HD
ATOM     32  N   UNL     1      -7.506  22.271 -23.506  0.00  0.00    -0.258 NA
ENDROOT
BRANCH   7   6
ATOM      1  C   UNL     1      -3.826  21.386 -18.508  0.00  0.00    +0.175 C 
ATOM      2  N   UNL     1      -4.479  20.142 -18.897  0.00  0.00    -0.280 N 
ATOM      3  H   UNL     1      -4.187  19.246 -18.481  0.00  0.00    +0.195 HD
ATOM      4  C   UNL     1      -5.520  20.183 -19.855  0.00  0.00    +0.193 A 
ATOM      5  S   UNL     1      -5.966  21.540 -20.836  0.00  0.00    +0.021 S 
ATOM      6  C   UNL     1      -7.257  20.751 -21.658  0.00  0.00    +0.069 A 
ATOM     33  C   UNL     1      -7.284  19.435 -21.127  0.00  0.00    +0.011 A 
ATOM     34  C   UNL     1      -8.244  18.337 -21.556  0.00  0.00    +0.107 C 
ATOM     35  N   UNL     1      -6.358  19.169 -20.187  0.00  0.00    -0.286 NA
ENDBRANCH   7   6
BRANCH  14  16
ATOM     16  C   UNL     1      -6.371  24.537 -25.089  0.00  0.00    +0.055 A 
ATOM     17  C   UNL     1      -5.744  25.276 -26.119  0.00  0.00    +0.022 A 
ATOM     18  C   UNL     1      -4.537  25.940 -25.881  0.00  0.00    +0.030 A 
ATOM     29  C   UNL     1      -3.946  25.886 -24.618  0.00  0.00    -0.013 A 
ATOM     30  C   UNL     1      -4.575  25.140 -23.576  0.00  0.00    -0.027 A 
ATOM     31  C   UNL     1      -5.778  24.475 -23.818  0.00  0.00    -0.008 A 
BRANCH  18  19
ATOM     19  N   UNL     1      -3.893  26.709 -26.964  0.00  0.00    -0.309 N 
ATOM     20  C   UNL     1      -4.441  27.432 -28.079  0.00  0.00    +0.154 C 
ATOM     21  C   UNL     1      -5.308  26.586 -28.971  0.00  0.00    +0.162 C 
ATOM     22  N   UNL     1      -4.533  25.620 -29.694  0.00  0.00    -0.272 N 
ATOM     23  C   UNL     1      -4.913  25.417 -31.084  0.00  0.00    +0.175 C 
ATOM     24  O   UNL     1      -4.298  24.612 -31.780  0.00  0.00    -0.397 OA
ATOM     25  C   UNL     1      -6.063  26.199 -31.678  0.00  0.00    +0.166 C 
ATOM     26  C   UNL     1      -3.436  24.851 -29.212  0.00  0.00    +0.140 C 
ATOM     27  C   UNL     1      -2.359  25.690 -28.612  0.00  0.00    +0.048 C 
ATOM     28  C   UNL     1      -2.613  26.089 -27.204  0.00  0.00    +0.131 C 
ENDBRANCH  18  19
ENDBRANCH  14  16
BRANCH   8   9
ATOM      9  C   UNL     1     -10.154  20.478 -21.602  0.00  0.00    +0.089 C 
ATOM     10  N   UNL     1     -10.691  19.812 -20.848  0.00  0.00    -0.343 NA
ENDBRANCH   8   9
TORSDOF 4
