REMARK  Name = 3hll_ligand
REMARK  8 active torsions:
REMARK  status: ('A' for Active; 'I' for Inactive)
REMARK    1  A    between atoms: C1_1  and  C7_7
REMARK    2  A    between atoms: C7_7  and  O8_8
REMARK    3  A    between atoms: O8_8  and  C9_9
REMARK    4  A    between atoms: N12_12  and  C15_15
REMARK    5  A    between atoms: C13_13  and  C25_25
REMARK    6  A    between atoms: C17_17  and  C26_26
REMARK    7  A    between atoms: C20_20  and  C30_30
REMARK    8  A    between atoms: N28_28  and  C29_29
REMARK                            x       y       z     vdW  Elec       q    Type
REMARK                         _______ _______ _______ _____ _____    ______ ____
ROOT
ATOM      4  C   UNL     1      35.328  37.999  21.281  0.00  0.00    +0.079 A 
ATOM      5  C   UNL     1      35.258  36.900  22.196  0.00  0.00    +0.026 A 
ATOM      6  C   UNL     1      34.931  37.125  23.471  0.00  0.00    +0.102 A 
ATOM      7  C   UNL     1      34.852  35.997  24.440  0.00  0.00    +0.165 C 
ATOM      8  N   UNL     1      34.646  38.405  23.923  0.00  0.00    -0.161 N 
ATOM     21  C   UNL     1      34.697  39.517  23.096  0.00  0.00    +0.202 A 
ATOM     22  O   UNL     1      34.460  40.658  23.459  0.00  0.00    -0.426 OA
ATOM     23  C   UNL     1      35.066  39.262  21.678  0.00  0.00    +0.066 A 
ATOM     24 BR   UNL     1      35.159  40.694  20.526  0.00  0.00    -0.101 Br
ENDROOT
BRANCH   8   9
ATOM      9  C   UNL     1      34.227  38.603  25.247  0.00  0.00    +0.118 A 
ATOM     10  C   UNL     1      32.938  38.298  25.650  0.00  0.00    -0.007 A 
ATOM     11  C   UNL     1      31.893  37.763  24.727  0.00  0.00    +0.085 C 
ATOM     12  C   UNL     1      32.570  38.490  26.964  0.00  0.00    -0.008 A 
ATOM     13  C   UNL     1      33.480  38.977  27.868  0.00  0.00    -0.002 A 
ATOM     14  C   UNL     1      34.760  39.274  27.460  0.00  0.00    +0.035 A 
ATOM     20  C   UNL     1      35.153  39.097  26.148  0.00  0.00    +0.044 A 
BRANCH  14  15
ATOM     15  C   UNL     1      35.720  39.806  28.440  0.00  0.00    +0.197 C 
ATOM     16  N   UNL     1      35.521  39.416  29.753  0.00  0.00    -0.290 N 
ATOM     17  H   UNL     1      35.365  40.132  30.434  0.00  0.00    +0.184 HD
ATOM     18  C   UNL     1      35.524  38.042  30.206  0.00  0.00    +0.164 C 
ATOM     19  O   UNL     1      36.586  40.580  28.049  0.00  0.00    -0.388 OA
ENDBRANCH  14  15
ENDBRANCH   8   9
BRANCH   4   3
ATOM      3  O   UNL     1      35.668  37.774  19.948  0.00  0.00    -0.305 OA
BRANCH   3   2
ATOM      2  C   UNL     1      36.066  36.428  19.589  0.00  0.00    +0.262 C 
BRANCH   2   1
ATOM      1  C   UNL     1      36.684  36.668  18.260  0.00  0.00    +0.018 A 
ATOM     25  C   UNL     1      35.944  36.556  17.105  0.00  0.00    -0.007 A 
ATOM     26  C   UNL     1      36.526  36.809  15.879  0.00  0.00    +0.016 A 
ATOM     27  C   UNL     1      37.849  37.185  15.803  0.00  0.00    +0.123 A 
ATOM     28  F   UNL     1      38.434  37.459  14.623  0.00  0.00    -0.190 F 
ATOM     29  C   UNL     1      38.595  37.304  16.945  0.00  0.00    +0.056 A 
ATOM     30  C   UNL     1      38.004  37.048  18.155  0.00  0.00    +0.134 A 
ATOM     31  F   UNL     1      38.771  37.171  19.245  0.00  0.00    -0.190 F 
ENDBRANCH   2   1
ENDBRANCH   3   2
ENDBRANCH   4   3
TORSDOF 5
