REMARK  Name = 3owk_ligand
REMARK  2 active torsions:
REMARK  status: ('A' for Active; 'I' for Inactive)
REMARK    1  A    between atoms: C1_1  and  O1_2
REMARK    2  A    between atoms: C14_15  and  C15_16
REMARK                            x       y       z     vdW  Elec       q    Type
REMARK                         _______ _______ _______ _____ _____    ______ ____
ROOT
ATOM      1  C   UNL     1      23.182   9.778  11.027  0.00  0.00    +0.086 A 
ATOM      2  C   UNL     1      23.211   8.426  10.685  0.00  0.00    +0.014 A 
ATOM      3  C   UNL     1      23.073   7.481  11.685  0.00  0.00    -0.037 A 
ATOM      4  C   UNL     1      23.109   6.128  11.343  0.00  0.00    -0.026 A 
ATOM      5  C   UNL     1      22.975   5.132  12.307  0.00  0.00    -0.015 A 
ATOM      6  C   UNL     1      22.806   5.533  13.626  0.00  0.00    -0.002 A 
ATOM      7  C   UNL     1      22.634   4.768  14.847  0.00  0.00    +0.030 A 
ATOM      8  C   UNL     1      22.588   3.307  15.081  0.00  0.00    +0.101 A 
ATOM      9 CL   UNL     1      22.742   2.146  13.760  0.00  0.00    -0.050 Cl
ATOM     10  N   UNL     1      22.415   2.895  16.364  0.00  0.00    -0.311 NA
ATOM     11  C   UNL     1      22.285   3.742  17.413  0.00  0.00    +0.058 A 
ATOM     12  C   UNL     1      22.314   5.137  17.298  0.00  0.00    -0.001 A 
ATOM     13  C   UNL     1      22.159   6.002  18.521  0.00  0.00    +0.086 C 
ATOM     14  C   UNL     1      22.496   5.734  15.946  0.00  0.00    +0.086 A 
ATOM     15  N   UNL     1      22.579   6.990  15.400  0.00  0.00    -0.267 N 
ATOM     16  H   UNL     1      22.513   7.863  15.942  0.00  0.00    +0.222 HD
ATOM     17  C   UNL     1      22.760   6.937  14.051  0.00  0.00    +0.077 A 
ATOM     18  C   UNL     1      22.886   7.937  13.099  0.00  0.00    +0.004 A 
ATOM     19  C   UNL     1      22.867   9.292  13.400  0.00  0.00    +0.004 A 
ATOM     20  C   UNL     1      23.009  10.204  12.351  0.00  0.00    +0.025 A 
ENDROOT
BRANCH   1  21
ATOM     21  O   UNL     1      23.327  10.680  10.026  0.00  0.00    -0.333 OA
ATOM     22  H   UNL     1      23.433  10.221   9.201  0.00  0.00    +0.249 HD
ENDBRANCH   1  21
TORSDOF 1
