REMARK  Name = GVO
REMARK  4 active torsions:
REMARK  status: ('A' for Active; 'I' for Inactive)
REMARK    1  A    between atoms: C2_2  and  C3_3
REMARK    2  A    between atoms: C3_3  and  C4_4
REMARK    3  A    between atoms: C3_3  and  C11_11
REMARK    4  A    between atoms: C14_14  and  C17_17
REMARK                            x       y       z     vdW  Elec       q    Type
REMARK                         _______ _______ _______ _____ _____    ______ ____
ROOT
ATOM     11  C   UNL     1       9.369   9.569   3.278  0.00  0.00    -0.017 A 
ATOM     12  C   UNL     1       8.726   9.792   4.491  0.00  0.00    -0.004 A 
ATOM     13  C   UNL     1       7.342   9.909   4.554  0.00  0.00    -0.000 A 
ATOM     14  C   UNL     1       6.566   9.788   3.398  0.00  0.00    +0.003 A 
ATOM     20  C   UNL     1       7.210   9.512   2.188  0.00  0.00    -0.000 A 
ATOM     21  C   UNL     1       8.597   9.418   2.133  0.00  0.00    -0.004 A 
ENDROOT
BRANCH  14  15
ATOM     15  C   UNL     1       5.081   9.837   3.441  0.00  0.00    +0.042 A 
ATOM     16  C   UNL     1       4.277   9.645   4.584  0.00  0.00    +0.124 A 
ATOM     17  N   UNL     1       3.026   9.685   4.223  0.00  0.00    -0.146 NA
ATOM     18  N   UNL     1       2.984   9.862   2.839  0.00  0.00    -0.146 NA
ATOM     19  C   UNL     1       4.234   9.943   2.379  0.00  0.00    +0.124 A 
ENDBRANCH  14  15
BRANCH  11   3
ATOM      3  C   UNL     1      10.867   9.379   3.105  0.00  0.00    +0.064 C 
BRANCH   3   4
ATOM      4  C   UNL     1      11.846   9.792   4.188  0.00  0.00    -0.017 A 
ATOM      5  C   UNL     1      11.796   9.271   5.476  0.00  0.00    -0.003 A 
ATOM      6  C   UNL     1      12.735   9.638   6.436  0.00  0.00    +0.011 A 
ATOM      7  C   UNL     1      13.752  10.515   6.120  0.00  0.00    +0.058 A 
ATOM      8 CL   UNL     1      14.909  10.956   7.349  0.00  0.00    -0.082 Cl
ATOM      9  C   UNL     1      13.824  11.032   4.830  0.00  0.00    +0.011 A 
ATOM     10  C   UNL     1      12.882  10.661   3.869  0.00  0.00    -0.003 A 
ENDBRANCH   3   4
BRANCH   3   2
ATOM      1  N   UNL     1      12.329   7.343   2.748  0.00  0.00    -0.131 NA
ATOM      2  C   UNL     1      10.970   7.837   3.017  0.00  0.00    +0.118 C 
ENDBRANCH   3   2
ENDBRANCH  11   3
TORSDOF 4
