REMARK  Name = 4qye_ligand
REMARK  4 active torsions:
REMARK  status: ('A' for Active; 'I' for Inactive)
REMARK    1  A    between atoms: C17_2  and  C1_4
REMARK    2  A    between atoms: C4_7  and  C7_10
REMARK    3  A    between atoms: C10_12  and  C11_16
REMARK    4  A    between atoms: C15_18  and  O1_19
REMARK                            x       y       z     vdW  Elec       q    Type
REMARK                         _______ _______ _______ _____ _____    ______ ____
ROOT
ATOM      7  C   UNL     1       5.272   8.581  18.708  0.00  0.00    +0.081 A 
ATOM      8  C   UNL     1       5.247   9.713  19.517  0.00  0.00    +0.139 A 
ATOM      9  N   UNL     1       4.112  10.075  20.112  0.00  0.00    -0.273 NA
ATOM     10  C   UNL     1       2.991   9.383  19.919  0.00  0.00    +0.138 A 
ATOM     11  C   UNL     1       2.988   8.254  19.104  0.00  0.00    +0.077 A 
ATOM     20  N   UNL     1       4.133   7.882  18.489  0.00  0.00    -0.264 NA
ENDROOT
BRANCH   7   6
ATOM      3  C   UNL     1       8.649   7.370  16.417  0.00  0.00    +0.012 A 
ATOM      4  C   UNL     1       8.640   8.630  17.013  0.00  0.00    +0.021 A 
ATOM      5  C   UNL     1       7.553   9.027  17.785  0.00  0.00    +0.020 A 
ATOM      6  C   UNL     1       6.483   8.162  17.964  0.00  0.00    +0.009 A 
ATOM     21  C   UNL     1       6.478   6.920  17.335  0.00  0.00    +0.020 A 
ATOM     22  C   UNL     1       7.570   6.519  16.587  0.00  0.00    +0.021 A 
BRANCH   3   2
ATOM      1  O   UNL     1       9.694   5.811  15.003  0.00  0.00    -0.560 OA
ATOM      2  C   UNL     1       9.810   6.897  15.605  0.00  0.00    +0.064 C 
ATOM     23  O   UNL     1      10.854   7.586  15.561  0.00  0.00    -0.560 OA
ENDBRANCH   3   2
ENDBRANCH   7   6
BRANCH  11  12
ATOM     12  C   UNL     1       1.734   7.516  18.827  0.00  0.00    -0.002 A 
ATOM     13  C   UNL     1       1.660   6.722  17.673  0.00  0.00    -0.004 A 
ATOM     14  C   UNL     1       0.487   6.038  17.349  0.00  0.00    -0.007 A 
ATOM     15  C   UNL     1      -0.629   6.166  18.175  0.00  0.00    +0.026 A 
ATOM     16  C   UNL     1      -0.558   6.983  19.308  0.00  0.00    +0.091 A 
ATOM     19  C   UNL     1       0.608   7.666  19.627  0.00  0.00    +0.036 A 
BRANCH  16  17
ATOM     17  O   UNL     1      -1.633   7.134  20.134  0.00  0.00    -0.333 OA
ATOM     18  H   UNL     1      -2.359   6.617  19.805  0.00  0.00    +0.248 HD
ENDBRANCH  16  17
ENDBRANCH  11  12
TORSDOF 4
