REMARK  Name = 2vtq_ligand
REMARK  4 active torsions:
REMARK  status: ('A' for Active; 'I' for Inactive)
REMARK    1  A    between atoms: C5_3  and  N6_4
REMARK    2  A    between atoms: C7_5  and  C9_7
REMARK    3  A    between atoms: C13_11  and  N14_12
REMARK    4  A    between atoms: C15_13  and  C17_15
REMARK                            x       y       z     vdW  Elec       q    Type
REMARK                         _______ _______ _______ _____ _____    ______ ____
ROOT
ATOM     11  C   UNL     1      27.903   5.315  64.752  0.00  0.00    +0.166 A 
ATOM     12  C   UNL     1      26.813   5.011  63.935  0.00  0.00    +0.100 A 
ATOM     25  C   UNL     1      26.532   3.694  64.161  0.00  0.00    +0.100 A 
ATOM     26  N   UNL     1      27.423   3.245  65.073  0.00  0.00    -0.215 NA
ATOM     27  N   UNL     1      28.271   4.227  65.454  0.00  0.00    -0.219 N 
ATOM     28  H   UNL     1      29.038   4.157  66.138  0.00  0.00    +0.249 HD
ENDROOT
BRANCH  11  10
ATOM      8  N   UNL     1      29.766   6.674  65.497  0.00  0.00    -0.286 N 
ATOM      9  H   UNL     1      30.136   5.837  65.899  0.00  0.00    +0.184 HD
ATOM     10  C   UNL     1      28.588   6.634  64.853  0.00  0.00    +0.213 C 
ATOM     29  O   UNL     1      28.086   7.638  64.364  0.00  0.00    -0.398 OA
BRANCH   8   7
ATOM      1  C   UNL     1      31.856   9.409  67.127  0.00  0.00    +0.131 C 
ATOM      2  N   UNL     1      32.958   9.451  66.122  0.00  0.00    +0.227 N 
ATOM      3  H   UNL     1      33.446  10.329  66.209  0.00  0.00    +0.201 HD
ATOM      4  H   UNL     1      33.596   8.692  66.304  0.00  0.00    +0.201 HD
ATOM      5  C   UNL     1      32.438   9.322  64.731  0.00  0.00    +0.131 C 
ATOM      6  C   UNL     1      31.626   8.024  64.565  0.00  0.00    +0.078 C 
ATOM      7  C   UNL     1      30.515   7.924  65.619  0.00  0.00    +0.106 C 
ATOM     30  C   UNL     1      31.101   8.086  67.023  0.00  0.00    +0.078 C 
ENDBRANCH   8   7
ENDBRANCH  11  10
BRANCH  12  13
ATOM     13  N   UNL     1      26.212   5.915  63.075  0.00  0.00    -0.245 N 
ATOM     14  H   UNL     1      26.509   6.868  63.135  0.00  0.00    +0.217 HD
ATOM     15  C   UNL     1      25.266   5.624  62.168  0.00  0.00    +0.225 C 
ATOM     24  O   UNL     1      24.764   4.481  62.041  0.00  0.00    -0.381 OA
BRANCH  15  16
ATOM     16  C   UNL     1      24.860   6.766  61.285  0.00  0.00    +0.121 A 
ATOM     17  C   UNL     1      23.569   7.263  61.293  0.00  0.00    +0.152 A 
ATOM     18  F   UNL     1      22.658   6.678  62.095  0.00  0.00    -0.178 F 
ATOM     19  C   UNL     1      23.191   8.325  60.471  0.00  0.00    +0.032 A 
ATOM     20  C   UNL     1      24.132   8.919  59.635  0.00  0.00    +0.002 A 
ATOM     21  C   UNL     1      25.433   8.448  59.618  0.00  0.00    +0.032 A 
ATOM     22  C   UNL     1      25.784   7.377  60.432  0.00  0.00    +0.152 A 
ATOM     23  F   UNL     1      27.047   6.911  60.425  0.00  0.00    -0.178 F 
ENDBRANCH  15  16
ENDBRANCH  12  13
TORSDOF 4
