REMARK  Name = 4c4h_ligand
REMARK  12 active torsions:
REMARK  status: ('A' for Active; 'I' for Inactive)
REMARK    1  A    between atoms: C20_2  and  O1_3
REMARK    2  A    between atoms: O1_3  and  C21_4
REMARK    3  A    between atoms: C21_4  and  C24_5
REMARK    4  A    between atoms: C21_4  and  C23_6
REMARK    5  A    between atoms: C21_4  and  C22_7
REMARK    6  A    between atoms: C4_9  and  C3_10
REMARK    7  A    between atoms: N_14  and  C_15
REMARK    8  A    between atoms: C8_20  and  N3_23
REMARK    9  A    between atoms: N3_23  and  C9_24
REMARK   10  A    between atoms: C12_27  and  C13_31
REMARK   11  A    between atoms: N4_33  and  C15_34
REMARK   12  A    between atoms: N4_33  and  C14_35
REMARK                            x       y       z     vdW  Elec       q    Type
REMARK                         _______ _______ _______ _____ _____    ______ ____
ROOT
ATOM      1  O   UNL     1       3.186 -36.896 -14.790  0.00  0.00    -0.346 OA
ATOM      2  C   UNL     1       2.384 -36.620 -13.925  0.00  0.00    +0.396 C 
ATOM      3  N   UNL     1       2.183 -35.259 -13.520  0.00  0.00    -0.147 N 
ATOM      4  C   UNL     1       1.422 -34.854 -12.377  0.00  0.00    +0.102 A 
ATOM      5  C   UNL     1       0.714 -35.582 -11.392  0.00  0.00    +0.055 A 
ATOM      6  C   UNL     1      -0.031 -34.796 -10.446  0.00  0.00    +0.112 A 
ATOM     21  N   UNL     1      -0.045 -33.404 -10.446  0.00  0.00    -0.303 NA
ATOM     22  C   UNL     1       0.663 -32.756 -11.388  0.00  0.00    +0.054 A 
ATOM     23  C   UNL     1       1.415 -33.416 -12.370  0.00  0.00    -0.014 A 
ATOM     24  C   UNL     1       2.192 -32.962 -13.469  0.00  0.00    -0.043 A 
ATOM     25  C   UNL     1       2.644 -34.050 -14.172  0.00  0.00    +0.082 A 
ENDROOT
BRANCH  25  26
ATOM     26  C   UNL     1       3.376 -33.964 -15.408  0.00  0.00    +0.028 A 
ATOM     27  C   UNL     1       3.015 -33.120 -16.459  0.00  0.00    +0.169 A 
ATOM     28  N   UNL     1       3.976 -33.272 -17.441  0.00  0.00    -0.206 N 
ATOM     29  C   UNL     1       4.021 -32.502 -18.670  0.00  0.00    +0.243 C 
ATOM     30  N   UNL     1       4.941 -34.186 -17.098  0.00  0.00    -0.213 NA
ATOM     31  C   UNL     1       4.592 -34.614 -15.847  0.00  0.00    +0.076 A 
ENDBRANCH  25  26
BRANCH   6   7
ATOM      7  N   UNL     1      -0.862 -35.410  -9.497  0.00  0.00    -0.266 N 
ATOM      8  H   UNL     1      -1.342 -34.759  -8.859  0.00  0.00    +0.211 HD
BRANCH   7   9
ATOM      9  C   UNL     1      -1.147 -36.768  -9.274  0.00  0.00    +0.078 A 
ATOM     10  C   UNL     1      -1.058 -37.294  -7.941  0.00  0.00    +0.067 A 
ATOM     11 CL   UNL     1      -0.546 -36.280  -6.613  0.00  0.00    -0.079 Cl
ATOM     12  C   UNL     1      -1.336 -38.646  -7.664  0.00  0.00    +0.026 A 
ATOM     13  C   UNL     1      -1.703 -39.468  -8.742  0.00  0.00    +0.038 A 
ATOM     19  C   UNL     1      -1.794 -38.978 -10.044  0.00  0.00    +0.012 A 
ATOM     20  C   UNL     1      -1.523 -37.652 -10.315  0.00  0.00    +0.021 A 
BRANCH  13  14
ATOM     14  C   UNL     1      -2.044 -40.878  -8.523  0.00  0.00    +0.198 C 
ATOM     15  N   UNL     1      -1.261 -41.874  -9.182  0.00  0.00    -0.280 N 
ATOM     16  C   UNL     1      -1.829 -43.204  -9.458  0.00  0.00    +0.167 C 
ATOM     17  C   UNL     1       0.208 -41.819  -9.269  0.00  0.00    +0.167 C 
ATOM     18  O   UNL     1      -3.000 -41.159  -7.823  0.00  0.00    -0.390 OA
ENDBRANCH  13  14
ENDBRANCH   7   9
ENDBRANCH   6   7
BRANCH   2  32
ATOM     32  O   UNL     1       1.583 -37.583 -13.253  0.00  0.00    -0.245 OA
BRANCH  32  33
ATOM     33  C   UNL     1       1.613 -39.065 -13.489  0.00  0.00    +0.092 C 
ATOM     34  C   UNL     1       0.454 -39.622 -12.697  0.00  0.00    +0.046 C 
ATOM     35  C   UNL     1       2.928 -39.573 -12.936  0.00  0.00    +0.046 C 
ATOM     36  C   UNL     1       1.455 -39.411 -14.956  0.00  0.00    +0.046 C 
ENDBRANCH  32  33
ENDBRANCH   2  32
TORSDOF 6
