REMARK  Name = 3R7I
REMARK  5 active torsions:
REMARK  status: ('A' for Active; 'I' for Inactive)
REMARK    1  A    between atoms: C_1  and  N_2
REMARK    2  A    between atoms: C_7  and  C_13
REMARK    3  A    between atoms: N_8  and  C_14
REMARK    4  A    between atoms: C_14  and  C_15
REMARK    5  A    between atoms: C_18  and  C_21
REMARK                            x       y       z     vdW  Elec       q    Type
REMARK                         _______ _______ _______ _____ _____    ______ ____
ROOT
ATOM      1  C   UNL     1      94.878  80.552 -47.656  0.00  0.00    +0.123 C 
ATOM      2  C   UNL     1      93.840  80.399 -46.689  0.00  0.00    +0.012 C 
ATOM      3  C   UNL     1      92.517  80.836 -46.959  0.00  0.00    +0.085 C 
ATOM      4  C   UNL     1      92.167  81.460 -48.237  0.00  0.00    +0.052 C 
ATOM      5  N   UNL     1      90.934  81.880 -48.538  0.00  0.00    -0.282 NA
ATOM     16  C   UNL     1      93.242  81.613 -49.214  0.00  0.00    +0.060 C 
ATOM     22  C   UNL     1      94.564  81.162 -48.912  0.00  0.00    +0.047 C 
ENDROOT
BRANCH  16  17
ATOM     17  C   UNL     1      93.027  82.213 -50.556  0.00  0.00    +0.243 C 
ATOM     18  O   UNL     1      92.089  83.153 -50.704  0.00  0.00    -0.270 OA
ATOM     19  N   UNL     1      93.732  81.789 -51.632  0.00  0.00    -0.325 N 
ATOM     20  H   UNL     1      93.564  82.233 -52.591  0.00  0.00    +0.145 HD
ATOM     21  H   UNL     1      94.457  81.010 -51.523  0.00  0.00    +0.145 HD
ENDBRANCH  16  17
BRANCH   1  23
ATOM     23  N   UNL     1      96.173  80.116 -47.392  0.00  0.00    +0.056 N 
ATOM     24  O   UNL     1      97.147  80.260 -48.302  0.00  0.00    -0.126 OA
ATOM     25  O   UNL     1      96.483  79.541 -46.223  0.00  0.00    -0.126 OA
ENDBRANCH   1  23
BRANCH   5   6
ATOM      6  C   UNL     1      89.720  81.752 -47.727  0.00  0.00    +0.177 C 
BRANCH   6   7
ATOM      7  C   UNL     1      89.587  82.753 -46.618  0.00  0.00    -0.026 A 
ATOM      8  C   UNL     1      89.592  84.158 -46.888  0.00  0.00    +0.006 A 
ATOM      9  C   UNL     1      89.452  85.092 -45.825  0.00  0.00    +0.010 A 
ATOM     10  C   UNL     1      89.303  84.629 -44.462  0.00  0.00    -0.003 A 
ATOM     14  C   UNL     1      89.303  83.215 -44.217  0.00  0.00    +0.010 A 
ATOM     15  C   UNL     1      89.442  82.292 -45.282  0.00  0.00    +0.006 A 
BRANCH  10  11
ATOM     11  C   UNL     1      89.148  85.529 -43.308  0.00  0.00    +0.072 C 
ATOM     12  O   UNL     1      89.145  86.758 -43.524  0.00  0.00    -0.545 OA
ATOM     13  O   UNL     1      89.024  85.041 -42.153  0.00  0.00    -0.545 OA
ENDBRANCH  10  11
ENDBRANCH   6   7
ENDBRANCH   5   6
TORSDOF 5
