REMARK  Name = 3krl_ligand
REMARK  6 active torsions:
REMARK  status: ('A' for Active; 'I' for Inactive)
REMARK    1  A    between atoms: C01_1  and  N02_2
REMARK    2  A    between atoms: N05_5  and  C08_8
REMARK    3  A    between atoms: C11_11  and  N12_12
REMARK    4  A    between atoms: C13_13  and  C15_15
REMARK    5  A    between atoms: C18_18  and  C19_19
REMARK    6  A    between atoms: C22_22  and  N24_24
REMARK                            x       y       z     vdW  Elec       q    Type
REMARK                         _______ _______ _______ _____ _____    ______ ____
ROOT
ATOM      7  C   UNL     1      11.089 -13.767 -11.406  0.00  0.00    +0.014 A 
ATOM      8  C   UNL     1      11.316 -13.634 -10.004  0.00  0.00    -0.002 A 
ATOM      9  C   UNL     1      11.993 -14.589  -9.189  0.00  0.00    +0.053 A 
ATOM     16  C   UNL     1      12.506 -15.805  -9.749  0.00  0.00    +0.073 A 
ATOM     28  C   UNL     1      12.289 -15.930 -11.136  0.00  0.00    -0.019 A 
ATOM     29  C   UNL     1      11.619 -14.962 -11.914  0.00  0.00    -0.033 A 
ENDROOT
BRANCH   7   6
ATOM      1  C   UNL     1       8.166 -10.187 -15.259  0.00  0.00    +0.190 C 
ATOM      2  N   UNL     1       8.968 -10.669 -14.088  0.00  0.00    +0.236 N 
ATOM      3  H   UNL     1       9.091  -9.752 -13.687  0.00  0.00    +0.203 HD
ATOM      4  C   UNL     1      10.399 -10.920 -14.273  0.00  0.00    +0.154 C 
ATOM      5  C   UNL     1      11.118 -12.005 -13.381  0.00  0.00    +0.176 C 
ATOM      6  N   UNL     1      10.440 -12.683 -12.240  0.00  0.00    -0.309 N 
ATOM     30  C   UNL     1       9.015 -12.324 -12.042  0.00  0.00    +0.176 C 
ATOM     31  C   UNL     1       8.289 -11.225 -12.910  0.00  0.00    +0.154 C 
ENDBRANCH   7   6
BRANCH   9  10
ATOM     10  N   UNL     1      12.183 -14.465  -7.729  0.00  0.00    -0.316 N 
ATOM     11  C   UNL     1      11.770 -15.478  -6.714  0.00  0.00    +0.126 C 
ATOM     12  C   UNL     1      12.545 -15.433  -5.382  0.00  0.00    +0.023 C 
ATOM     13  C   UNL     1      12.601 -13.984  -4.944  0.00  0.00    +0.004 C 
ATOM     14  C   UNL     1      13.506 -13.216  -5.891  0.00  0.00    +0.023 C 
ATOM     15  C   UNL     1      13.210 -13.453  -7.384  0.00  0.00    +0.126 C 
ENDBRANCH   9  10
BRANCH  16  17
ATOM     17  N   UNL     1      13.237 -16.734  -8.905  0.00  0.00    -0.242 N 
ATOM     18  H   UNL     1      13.409 -16.380  -7.986  0.00  0.00    +0.217 HD
ATOM     19  C   UNL     1      13.755 -18.027  -9.108  0.00  0.00    +0.265 C 
ATOM     27  O   UNL     1      13.583 -18.695 -10.125  0.00  0.00    -0.373 OA
BRANCH  19  20
ATOM     20  C   UNL     1      14.552 -18.733  -8.030  0.00  0.00    +0.210 A 
ATOM     21  O   UNL     1      15.029 -17.991  -6.983  0.00  0.00    -0.214 OA
ATOM     22  C   UNL     1      15.696 -18.862  -6.151  0.00  0.00    +0.235 A 
ATOM     25  C   UNL     1      15.648 -20.151  -6.646  0.00  0.00    +0.046 A 
ATOM     26  C   UNL     1      14.894 -20.065  -7.873  0.00  0.00    +0.032 A 
BRANCH  22  23
ATOM     23  C   UNL     1      16.248 -18.208  -5.022  0.00  0.00    +0.118 C 
ATOM     24  N   UNL     1      16.685 -17.652  -4.104  0.00  0.00    -0.347 NA
ENDBRANCH  22  23
ENDBRANCH  19  20
ENDBRANCH  16  17
TORSDOF 5
