REMARK  Name = 5LMK
REMARK  5 active torsions:
REMARK  status: ('A' for Active; 'I' for Inactive)
REMARK    1  A    between atoms: C_2  and  C_4
REMARK    2  A    between atoms: C_9  and  C_10
REMARK    3  A    between atoms: C_15  and  C_16
REMARK    4  A    between atoms: N_26  and  C_27
REMARK    5  A    between atoms: C_27  and  C_28
REMARK                            x       y       z     vdW  Elec       q    Type
REMARK                         _______ _______ _______ _____ _____    ______ ____
ROOT
ATOM     11  C   UNL     1      -5.489  22.661 -22.671  0.00  0.00    +0.086 A 
ATOM     12  C   UNL     1      -5.636  23.782 -23.501  0.00  0.00    +0.058 A 
ATOM     13  C   UNL     1      -6.842  24.024 -24.176  0.00  0.00    +0.163 A 
ATOM     14  N   UNL     1      -6.982  25.095 -25.018  0.00  0.00    -0.248 NA
ATOM     22  N   UNL     1      -7.857  23.160 -23.965  0.00  0.00    -0.195 N 
ATOM     23  N   UNL     1      -9.140  23.231 -24.536  0.00  0.00    -0.160 NA
ATOM     24  C   UNL     1      -9.863  22.173 -24.053  0.00  0.00    +0.130 A 
ATOM     25  C   UNL     1      -9.014  21.467 -23.208  0.00  0.00    +0.091 A 
ATOM     26 BR   UNL     1      -9.540  19.815 -22.208  0.00  0.00    -0.044 Br
ATOM     27  C   UNL     1      -7.692  22.121 -23.149  0.00  0.00    +0.173 A 
ATOM     28  N   UNL     1      -6.551  21.831 -22.473  0.00  0.00    -0.226 NA
ENDROOT
BRANCH  11  10
ATOM      7  C   UNL     1      -1.864  22.155 -20.433  0.00  0.00    +0.000 A 
ATOM      8  C   UNL     1      -2.571  21.014 -20.845  0.00  0.00    +0.000 A 
ATOM      9  C   UNL     1      -3.751  21.151 -21.594  0.00  0.00    +0.002 A 
ATOM     10  C   UNL     1      -4.219  22.435 -21.921  0.00  0.00    +0.018 A 
ATOM     29  C   UNL     1      -3.529  23.569 -21.469  0.00  0.00    +0.002 A 
ATOM     30  C   UNL     1      -2.358  23.430 -20.729  0.00  0.00    +0.000 A 
BRANCH   7   6
ATOM      3  C   UNL     1       1.490  21.978 -17.766  0.00  0.00    +0.057 A 
ATOM      4  C   UNL     1       0.206  21.601 -17.364  0.00  0.00    +0.005 A 
ATOM      5  C   UNL     1      -0.845  21.673 -18.275  0.00  0.00    +0.000 A 
ATOM      6  C   UNL     1      -0.637  22.095 -19.593  0.00  0.00    +0.000 A 
ATOM     31  C   UNL     1       0.644  22.495 -20.004  0.00  0.00    +0.000 A 
ATOM     32  C   UNL     1       1.709  22.424 -19.086  0.00  0.00    +0.005 A 
BRANCH   3   2
ATOM      1  O   UNL     1       2.602  20.970 -15.947  0.00  0.00    -0.267 OA
ATOM      2  C   UNL     1       2.602  21.889 -16.751  0.00  0.00    +0.284 C 
ATOM     33  N   UNL     1       3.555  22.820 -16.727  0.00  0.00    -0.084 NA
ENDBRANCH   3   2
ENDBRANCH   7   6
ENDBRANCH  11  10
BRANCH  14  15
ATOM     15  C   UNL     1      -5.932  26.084 -25.275  0.00  0.00    +0.155 C 
BRANCH  15  16
ATOM     16  C   UNL     1      -5.253  25.937 -26.614  0.00  0.00    +0.021 A 
ATOM     17  C   UNL     1      -3.855  25.961 -26.670  0.00  0.00    +0.097 A 
ATOM     18  N   UNL     1      -3.230  25.833 -27.855  0.00  0.00    -0.243 NA
ATOM     19  C   UNL     1      -3.918  25.690 -29.010  0.00  0.00    +0.099 A 
ATOM     20  C   UNL     1      -5.318  25.668 -29.011  0.00  0.00    +0.020 A 
ATOM     21  C   UNL     1      -5.994  25.801 -27.795  0.00  0.00    +0.001 A 
ENDBRANCH  15  16
ENDBRANCH  14  15
TORSDOF 5
