REMARK  Name = 3ama_ligand
REMARK  4 active torsions:
REMARK  status: ('A' for Active; 'I' for Inactive)
REMARK    1  A    between atoms: S_1  and  N4_14
REMARK    2  A    between atoms: S_1  and  C6_17
REMARK    3  A    between atoms: C3_10  and  N3_11
REMARK    4  A    between atoms: C9_21  and  C10_22
REMARK                            x       y       z     vdW  Elec       q    Type
REMARK                         _______ _______ _______ _____ _____    ______ ____
ROOT
ATOM      7  N   UNL     1     -32.244   9.578   7.180  0.00  0.00    -0.267 N 
ATOM      8  H   UNL     1     -33.228   9.370   7.400  0.00  0.00    +0.207 HD
ATOM      9  C   UNL     1     -31.935   9.710   5.865  0.00  0.00    +0.151 A 
ATOM     10  N   UNL     1     -30.718   9.766   5.314  0.00  0.00    -0.181 NA
ATOM     11  N   UNL     1     -30.852   9.900   4.069  0.00  0.00    -0.083 N 
ATOM     12  C   UNL     1     -29.805   9.972   3.219  0.00  0.00    +0.289 C 
ATOM     21  O   UNL     1     -29.941  10.009   1.988  0.00  0.00    -0.352 OA
ATOM     22  C   UNL     1     -32.156   9.883   3.754  0.00  0.00    +0.253 A 
ATOM     23  N   UNL     1     -32.705   9.984   2.527  0.00  0.00    -0.289 N 
ATOM     24  H   UNL     1     -32.101  10.088   1.699  0.00  0.00    +0.182 HD
ATOM     25  H   UNL     1     -33.729   9.957   2.417  0.00  0.00    +0.182 HD
ATOM     26  N   UNL     1     -32.847   9.761   4.884  0.00  0.00    -0.274 NA
ENDROOT
BRANCH  12  13
ATOM     13  C   UNL     1     -28.426   9.791   3.883  0.00  0.00    +0.135 A 
ATOM     14  C   UNL     1     -27.645   8.681   3.563  0.00  0.00    +0.154 A 
ATOM     15  C   UNL     1     -26.419   8.488   4.201  0.00  0.00    +0.032 A 
ATOM     16  C   UNL     1     -25.977   9.402   5.164  0.00  0.00    +0.002 A 
ATOM     17  C   UNL     1     -26.761  10.513   5.489  0.00  0.00    +0.032 A 
ATOM     18  F   UNL     1     -28.077   7.787   2.643  0.00  0.00    -0.178 F 
ATOM     19  C   UNL     1     -27.994  10.700   4.854  0.00  0.00    +0.154 A 
ATOM     20  F   UNL     1     -28.760  11.768   5.163  0.00  0.00    -0.178 F 
ENDBRANCH  12  13
BRANCH   7   5
ATOM      2  C   UNL     1     -29.749   9.928  10.500  0.00  0.00    +0.095 A 
ATOM      3  C   UNL     1     -31.138   9.894  10.641  0.00  0.00    +0.014 A 
ATOM      4  C   UNL     1     -31.964   9.769   9.519  0.00  0.00    +0.014 A 
ATOM      5  C   UNL     1     -31.404   9.689   8.232  0.00  0.00    +0.058 A 
ATOM      6  C   UNL     1     -30.006   9.734   8.100  0.00  0.00    +0.014 A 
ATOM     27  C   UNL     1     -29.185   9.856   9.230  0.00  0.00    +0.014 A 
BRANCH   2   1
ATOM      1  S   UNL     1     -28.683  10.097  11.922  0.00  0.00    +0.060 S 
ATOM     31  O   UNL     1     -27.941  11.400  11.795  0.00  0.00    -0.152 OA
ATOM     32  O   UNL     1     -29.520  10.072  13.144  0.00  0.00    -0.152 OA
BRANCH   1  28
ATOM     28  N   UNL     1     -27.601   8.889  11.962  0.00  0.00    -0.262 NA
ATOM     29  H   UNL     1     -26.623   9.091  11.904  0.00  0.00    +0.163 HD
ATOM     30  H   UNL     1     -27.912   7.942  12.044  0.00  0.00    +0.163 HD
ENDBRANCH   1  28
ENDBRANCH   2   1
ENDBRANCH   7   5
TORSDOF 4
