REMARK  Name = 4IW0
REMARK  7 active torsions:
REMARK  status: ('A' for Active; 'I' for Inactive)
REMARK    1  A    between atoms: N_6  and  C_17
REMARK    2  A    between atoms: N_7  and  C_21
REMARK    3  A    between atoms: N_8  and  C_22
REMARK    4  A    between atoms: N_9  and  C_23
REMARK    5  A    between atoms: C_19  and  C_21
REMARK    6  A    between atoms: C_19  and  C_23
REMARK    7  A    between atoms: C_29  and  C_31
REMARK                            x       y       z     vdW  Elec       q    Type
REMARK                         _______ _______ _______ _____ _____    ______ ____
ROOT
ATOM      1  I   UNL     1      83.462  68.492 -11.608  0.00  0.00    -0.039 I 
ATOM      2  C   UNL     1      83.696  69.394  -9.708  0.00  0.00    +0.071 A 
ATOM      3  C   UNL     1      83.935  70.541  -9.796  0.00  0.00    +0.132 A 
ATOM      4  N   UNL     1      84.137  71.389  -8.908  0.00  0.00    -0.222 NA
ATOM      5  C   UNL     1      84.051  70.840  -7.551  0.00  0.00    +0.221 A 
ATOM      6  N   UNL     1      83.727  69.295  -7.488  0.00  0.00    -0.198 NA
ATOM      7  N   UNL     1      84.257  71.681  -6.361  0.00  0.00    -0.283 N 
ATOM      8  H   UNL     1      85.243  72.084  -6.465  0.00  0.00    +0.155 HD
ATOM     24  C   UNL     1      83.563  68.656  -8.762  0.00  0.00    +0.137 A 
ATOM     25  N   UNL     1      83.261  67.238  -8.810  0.00  0.00    -0.328 N 
ATOM     26  H   UNL     1      82.254  67.134  -9.155  0.00  0.00    +0.147 HD
ENDROOT
BRANCH   7   9
ATOM      9  C   UNL     1      84.171  71.220  -4.984  0.00  0.00    +0.035 A 
ATOM     10  C   UNL     1      83.954  70.023  -4.633  0.00  0.00    +0.023 A 
ATOM     11  C   UNL     1      83.848  69.467  -3.582  0.00  0.00    +0.004 A 
ATOM     12  C   UNL     1      83.931  69.952  -2.411  0.00  0.00    +0.023 A 
ATOM     13  C   UNL     1      84.201  71.451  -2.376  0.00  0.00    +0.036 A 
ATOM     23  C   UNL     1      84.330  72.137  -3.836  0.00  0.00    +0.046 A 
BRANCH  13  14
ATOM     14  N   UNL     1      84.332  72.228  -1.149  0.00  0.00    -0.269 N 
ATOM     15  H   UNL     1      84.279  73.295  -1.204  0.00  0.00    +0.156 HD
ATOM     16  C   UNL     1      84.517  71.648   0.048  0.00  0.00    +0.306 C 
ATOM     17  N   UNL     1      85.212  72.554   0.970  0.00  0.00    -0.285 N 
ATOM     18  C   UNL     1      86.064  73.654   0.554  0.00  0.00    +0.109 C 
ATOM     19  C   UNL     1      85.986  74.606   1.662  0.00  0.00    +0.020 C 
ATOM     20  C   UNL     1      86.025  73.749   2.854  0.00  0.00    +0.020 C 
ATOM     21  C   UNL     1      85.188  72.544   2.460  0.00  0.00    +0.109 C 
ATOM     22  O   UNL     1      84.265  70.486   0.672  0.00  0.00    -0.252 OA
ENDBRANCH  13  14
ENDBRANCH   7   9
BRANCH  25  27
ATOM     27  C   UNL     1      83.380  66.478  -7.533  0.00  0.00    +0.104 C 
BRANCH  27  28
ATOM     28  C   UNL     1      82.010  66.019  -6.998  0.00  0.00    +0.037 C 
BRANCH  28  29
ATOM     29  C   UNL     1      81.129  65.532  -8.127  0.00  0.00    +0.106 C 
BRANCH  29  30
ATOM     30  N   UNL     1      81.603  64.236  -8.571  0.00  0.00    -0.311 N 
ATOM     31  H   UNL     1      81.390  63.359  -7.996  0.00  0.00    +0.149 HD
ATOM     32  C   UNL     1      82.309  64.144  -9.705  0.00  0.00    +0.250 C 
ATOM     38  O   UNL     1      82.475  64.789 -10.871  0.00  0.00    -0.270 OA
BRANCH  32  33
ATOM     33  C   UNL     1      83.218  62.946  -9.623  0.00  0.00    +0.066 C 
ATOM     34  C   UNL     1      84.135  62.884  -8.703  0.00  0.00    -0.006 C 
ATOM     35  C   UNL     1      84.932  61.591  -8.806  0.00  0.00    +0.039 C 
ATOM     36  C   UNL     1      84.321  60.790 -10.033  0.00  0.00    +0.079 C 
ATOM     37  S   UNL     1      83.095  61.791 -10.593  0.00  0.00    -0.120 S 
ENDBRANCH  32  33
ENDBRANCH  29  30
ENDBRANCH  28  29
ENDBRANCH  27  28
ENDBRANCH  25  27
TORSDOF 7
