REMARK  Name = 4eol_ligand
REMARK  4 active torsions:
REMARK  status: ('A' for Active; 'I' for Inactive)
REMARK    1  A    between atoms: N3_5  and  C18_6
REMARK    2  A    between atoms: C18_6  and  C19_7
REMARK    3  A    between atoms: C12_13  and  C11_14
REMARK    4  A    between atoms: C11_14  and  C1_15
REMARK                            x       y       z     vdW  Elec       q    Type
REMARK                         _______ _______ _______ _____ _____    ______ ____
ROOT
ATOM      1  O   UNL     1     -10.180 -24.629  22.573  0.00  0.00    -0.394 OA
ATOM      2  C   UNL     1     -10.294 -23.527  21.960  0.00  0.00    +0.158 C 
ATOM      3  C   UNL     1     -11.384 -22.540  22.123  0.00  0.00    +0.187 C 
ATOM     15  S   UNL     1     -10.983 -21.238  21.016  0.00  0.00    +0.005 S 
ATOM     16  C   UNL     1      -9.537 -22.111  20.527  0.00  0.00    +0.187 C 
ATOM     17  N   UNL     1      -8.562 -21.812  19.648  0.00  0.00    -0.259 N 
ATOM     18  H   UNL     1      -8.534 -20.890  19.189  0.00  0.00    +0.202 HD
ATOM     25  N   UNL     1      -9.342 -23.286  21.105  0.00  0.00    -0.267 NA
ENDROOT
BRANCH   3   4
ATOM      4  C   UNL     1     -12.554 -22.634  23.051  0.00  0.00    +0.108 C 
BRANCH   4   5
ATOM      5  C   UNL     1     -12.690 -23.874  23.870  0.00  0.00    -0.033 A 
ATOM      6  C   UNL     1     -11.577 -24.683  24.109  0.00  0.00    +0.010 A 
ATOM      7  C   UNL     1     -11.658 -25.873  24.813  0.00  0.00    -0.001 A 
ATOM      8  C   UNL     1     -10.545 -26.677  25.045  0.00  0.00    +0.037 A 
ATOM      9  C   UNL     1     -10.719 -27.847  25.785  0.00  0.00    +0.035 A 
ATOM     10  C   UNL     1     -11.983 -28.209  26.270  0.00  0.00    +0.093 A 
ATOM     11  N   UNL     1     -13.066 -27.443  26.050  0.00  0.00    -0.298 NA
ATOM     12  C   UNL     1     -12.975 -26.290  25.344  0.00  0.00    +0.042 A 
ATOM     13  C   UNL     1     -14.071 -25.471  25.093  0.00  0.00    +0.022 A 
ATOM     14  C   UNL     1     -13.930 -24.284  24.358  0.00  0.00    +0.011 A 
ENDBRANCH   4   5
ENDBRANCH   3   4
BRANCH  17  19
ATOM     19  C   UNL     1      -7.530 -22.832  19.353  0.00  0.00    +0.230 C 
BRANCH  19  20
ATOM     20  C   UNL     1      -7.079 -23.679  20.541  0.00  0.00    +0.036 A 
ATOM     21  S   UNL     1      -6.225 -22.907  21.838  0.00  0.00    -0.042 S 
ATOM     22  C   UNL     1      -6.031 -24.324  22.817  0.00  0.00    +0.040 A 
ATOM     23  C   UNL     1      -6.635 -25.364  22.116  0.00  0.00    -0.056 A 
ATOM     24  C   UNL     1      -7.208 -25.025  20.882  0.00  0.00    -0.052 A 
ENDBRANCH  19  20
ENDBRANCH  17  19
TORSDOF 4
